<?xml version="1.0" encoding="UTF-8"?>

<!-- generated on Wed Jun 23 15:06:29 2021 by Eclipse SUMO netgenerate Version 1.7.0
<configuration xmlns:xsi="http://www.w3.org/2001/XMLSchema-instance" xsi:noNamespaceSchemaLocation="http://sumo.dlr.de/xsd/netgenerateConfiguration.xsd">

    <grid_network>
        <grid value="true"/>
        <grid.number value="5"/>
        <grid.length value="250"/>
        <grid.attach-length value="250"/>
    </grid_network>

    <output>
        <output-file value="meta.net.xml"/>
    </output>

    <building_defaults>
        <default.lanenumber value="2"/>
    </building_defaults>

</configuration>
-->

<net version="1.6" junctionCornerDetail="5" limitTurnSpeed="5.50" xmlns:xsi="http://www.w3.org/2001/XMLSchema-instance" xsi:noNamespaceSchemaLocation="http://sumo.dlr.de/xsd/net_file.xsd">

    <location netOffset="0.00,0.00" convBoundary="0.00,0.00,1500.00,1500.00" origBoundary="0.00,0.00,1500.00,1500.00" projParameter="!"/>

    <edge id=":A0_0" function="internal">
        <lane id=":A0_0_0" index="0" speed="6.51" length="9.03" shape="245.20,260.40 244.85,257.95 243.80,256.20 242.05,255.15 239.60,254.80"/>
    </edge>
    <edge id=":A0_1" function="internal">
        <lane id=":A0_1_0" index="0" speed="13.89" length="20.80" shape="245.20,260.40 245.20,239.60"/>
        <lane id=":A0_1_1" index="1" speed="13.89" length="20.80" shape="248.40,260.40 248.40,239.60"/>
    </edge>
    <edge id=":A0_3" function="internal">
        <lane id=":A0_3_0" index="0" speed="9.26" length="6.96" shape="248.40,260.40 249.15,255.15 250.00,253.73"/>
    </edge>
    <edge id=":A0_4" function="internal">
        <lane id=":A0_4_0" index="0" speed="3.65" length="2.34" shape="248.40,260.40 249.20,259.20 250.00,258.80"/>
    </edge>
    <edge id=":A0_20" function="internal">
        <lane id=":A0_20_0" index="0" speed="9.26" length="12.40" shape="250.00,253.73 251.40,251.40 255.15,249.15 260.40,248.40"/>
    </edge>
    <edge id=":A0_21" function="internal">
        <lane id=":A0_21_0" index="0" speed="3.65" length="2.34" shape="250.00,258.80 250.80,259.20 251.60,260.40"/>
    </edge>
    <edge id=":A0_5" function="internal">
        <lane id=":A0_5_0" index="0" speed="6.51" length="9.03" shape="260.40,254.80 257.95,255.15 256.20,256.20 255.15,257.95 254.80,260.40"/>
    </edge>
    <edge id=":A0_6" function="internal">
        <lane id=":A0_6_0" index="0" speed="13.89" length="20.80" shape="260.40,254.80 239.60,254.80"/>
        <lane id=":A0_6_1" index="1" speed="13.89" length="20.80" shape="260.40,251.60 239.60,251.60"/>
    </edge>
    <edge id=":A0_8" function="internal">
        <lane id=":A0_8_0" index="0" speed="9.26" length="19.35" shape="260.40,251.60 255.15,250.85 251.40,248.60 249.15,244.85 248.40,239.60"/>
    </edge>
    <edge id=":A0_9" function="internal">
        <lane id=":A0_9_0" index="0" speed="3.65" length="4.67" shape="260.40,251.60 259.20,250.80 258.80,250.00 259.20,249.20 260.40,248.40"/>
    </edge>
    <edge id=":A0_10" function="internal">
        <lane id=":A0_10_0" index="0" speed="6.51" length="9.03" shape="254.80,239.60 255.15,242.05 256.20,243.80 257.95,244.85 260.40,245.20"/>
    </edge>
    <edge id=":A0_11" function="internal">
        <lane id=":A0_11_0" index="0" speed="13.89" length="20.80" shape="254.80,239.60 254.80,260.40"/>
        <lane id=":A0_11_1" index="1" speed="13.89" length="20.80" shape="251.60,239.60 251.60,260.40"/>
    </edge>
    <edge id=":A0_13" function="internal">
        <lane id=":A0_13_0" index="0" speed="9.26" length="6.96" shape="251.60,239.60 250.85,244.85 250.00,246.27"/>
    </edge>
    <edge id=":A0_14" function="internal">
        <lane id=":A0_14_0" index="0" speed="3.65" length="2.34" shape="251.60,239.60 250.80,240.80 250.00,241.20"/>
    </edge>
    <edge id=":A0_22" function="internal">
        <lane id=":A0_22_0" index="0" speed="9.26" length="12.40" shape="250.00,246.27 248.60,248.60 244.85,250.85 239.60,251.60"/>
    </edge>
    <edge id=":A0_23" function="internal">
        <lane id=":A0_23_0" index="0" speed="3.65" length="2.34" shape="250.00,241.20 249.20,240.80 248.40,239.60"/>
    </edge>
    <edge id=":A0_15" function="internal">
        <lane id=":A0_15_0" index="0" speed="6.51" length="9.03" shape="239.60,245.20 242.05,244.85 243.80,243.80 244.85,242.05 245.20,239.60"/>
    </edge>
    <edge id=":A0_16" function="internal">
        <lane id=":A0_16_0" index="0" speed="13.89" length="20.80" shape="239.60,245.20 260.40,245.20"/>
        <lane id=":A0_16_1" index="1" speed="13.89" length="20.80" shape="239.60,248.40 260.40,248.40"/>
    </edge>
    <edge id=":A0_18" function="internal">
        <lane id=":A0_18_0" index="0" speed="9.26" length="19.35" shape="239.60,248.40 244.85,249.15 248.60,251.40 250.85,255.15 251.60,260.40"/>
    </edge>
    <edge id=":A0_19" function="internal">
        <lane id=":A0_19_0" index="0" speed="3.65" length="4.67" shape="239.60,248.40 240.80,249.20 241.20,250.00 240.80,250.80 239.60,251.60"/>
    </edge>
    <edge id=":A1_0" function="internal">
        <lane id=":A1_0_0" index="0" speed="6.51" length="9.03" shape="245.20,510.40 244.85,507.95 243.80,506.20 242.05,505.15 239.60,504.80"/>
    </edge>
    <edge id=":A1_1" function="internal">
        <lane id=":A1_1_0" index="0" speed="13.89" length="20.80" shape="245.20,510.40 245.20,489.60"/>
        <lane id=":A1_1_1" index="1" speed="13.89" length="20.80" shape="248.40,510.40 248.40,489.60"/>
    </edge>
    <edge id=":A1_3" function="internal">
        <lane id=":A1_3_0" index="0" speed="9.26" length="6.96" shape="248.40,510.40 249.15,505.15 250.00,503.73"/>
    </edge>
    <edge id=":A1_4" function="internal">
        <lane id=":A1_4_0" index="0" speed="3.65" length="2.34" shape="248.40,510.40 249.20,509.20 250.00,508.80"/>
    </edge>
    <edge id=":A1_20" function="internal">
        <lane id=":A1_20_0" index="0" speed="9.26" length="12.40" shape="250.00,503.73 251.40,501.40 255.15,499.15 260.40,498.40"/>
    </edge>
    <edge id=":A1_21" function="internal">
        <lane id=":A1_21_0" index="0" speed="3.65" length="2.34" shape="250.00,508.80 250.80,509.20 251.60,510.40"/>
    </edge>
    <edge id=":A1_5" function="internal">
        <lane id=":A1_5_0" index="0" speed="6.51" length="9.03" shape="260.40,504.80 257.95,505.15 256.20,506.20 255.15,507.95 254.80,510.40"/>
    </edge>
    <edge id=":A1_6" function="internal">
        <lane id=":A1_6_0" index="0" speed="13.89" length="20.80" shape="260.40,504.80 239.60,504.80"/>
        <lane id=":A1_6_1" index="1" speed="13.89" length="20.80" shape="260.40,501.60 239.60,501.60"/>
    </edge>
    <edge id=":A1_8" function="internal">
        <lane id=":A1_8_0" index="0" speed="9.26" length="19.35" shape="260.40,501.60 255.15,500.85 251.40,498.60 249.15,494.85 248.40,489.60"/>
    </edge>
    <edge id=":A1_9" function="internal">
        <lane id=":A1_9_0" index="0" speed="3.65" length="4.67" shape="260.40,501.60 259.20,500.80 258.80,500.00 259.20,499.20 260.40,498.40"/>
    </edge>
    <edge id=":A1_10" function="internal">
        <lane id=":A1_10_0" index="0" speed="6.51" length="9.03" shape="254.80,489.60 255.15,492.05 256.20,493.80 257.95,494.85 260.40,495.20"/>
    </edge>
    <edge id=":A1_11" function="internal">
        <lane id=":A1_11_0" index="0" speed="13.89" length="20.80" shape="254.80,489.60 254.80,510.40"/>
        <lane id=":A1_11_1" index="1" speed="13.89" length="20.80" shape="251.60,489.60 251.60,510.40"/>
    </edge>
    <edge id=":A1_13" function="internal">
        <lane id=":A1_13_0" index="0" speed="9.26" length="6.96" shape="251.60,489.60 250.85,494.85 250.00,496.27"/>
    </edge>
    <edge id=":A1_14" function="internal">
        <lane id=":A1_14_0" index="0" speed="3.65" length="2.34" shape="251.60,489.60 250.80,490.80 250.00,491.20"/>
    </edge>
    <edge id=":A1_22" function="internal">
        <lane id=":A1_22_0" index="0" speed="9.26" length="12.40" shape="250.00,496.27 248.60,498.60 244.85,500.85 239.60,501.60"/>
    </edge>
    <edge id=":A1_23" function="internal">
        <lane id=":A1_23_0" index="0" speed="3.65" length="2.34" shape="250.00,491.20 249.20,490.80 248.40,489.60"/>
    </edge>
    <edge id=":A1_15" function="internal">
        <lane id=":A1_15_0" index="0" speed="6.51" length="9.03" shape="239.60,495.20 242.05,494.85 243.80,493.80 244.85,492.05 245.20,489.60"/>
    </edge>
    <edge id=":A1_16" function="internal">
        <lane id=":A1_16_0" index="0" speed="13.89" length="20.80" shape="239.60,495.20 260.40,495.20"/>
        <lane id=":A1_16_1" index="1" speed="13.89" length="20.80" shape="239.60,498.40 260.40,498.40"/>
    </edge>
    <edge id=":A1_18" function="internal">
        <lane id=":A1_18_0" index="0" speed="9.26" length="19.35" shape="239.60,498.40 244.85,499.15 248.60,501.40 250.85,505.15 251.60,510.40"/>
    </edge>
    <edge id=":A1_19" function="internal">
        <lane id=":A1_19_0" index="0" speed="3.65" length="4.67" shape="239.60,498.40 240.80,499.20 241.20,500.00 240.80,500.80 239.60,501.60"/>
    </edge>
    <edge id=":A2_0" function="internal">
        <lane id=":A2_0_0" index="0" speed="6.51" length="9.03" shape="245.20,760.40 244.85,757.95 243.80,756.20 242.05,755.15 239.60,754.80"/>
    </edge>
    <edge id=":A2_1" function="internal">
        <lane id=":A2_1_0" index="0" speed="13.89" length="20.80" shape="245.20,760.40 245.20,739.60"/>
        <lane id=":A2_1_1" index="1" speed="13.89" length="20.80" shape="248.40,760.40 248.40,739.60"/>
    </edge>
    <edge id=":A2_3" function="internal">
        <lane id=":A2_3_0" index="0" speed="9.26" length="6.96" shape="248.40,760.40 249.15,755.15 250.00,753.73"/>
    </edge>
    <edge id=":A2_4" function="internal">
        <lane id=":A2_4_0" index="0" speed="3.65" length="2.34" shape="248.40,760.40 249.20,759.20 250.00,758.80"/>
    </edge>
    <edge id=":A2_20" function="internal">
        <lane id=":A2_20_0" index="0" speed="9.26" length="12.40" shape="250.00,753.73 251.40,751.40 255.15,749.15 260.40,748.40"/>
    </edge>
    <edge id=":A2_21" function="internal">
        <lane id=":A2_21_0" index="0" speed="3.65" length="2.34" shape="250.00,758.80 250.80,759.20 251.60,760.40"/>
    </edge>
    <edge id=":A2_5" function="internal">
        <lane id=":A2_5_0" index="0" speed="6.51" length="9.03" shape="260.40,754.80 257.95,755.15 256.20,756.20 255.15,757.95 254.80,760.40"/>
    </edge>
    <edge id=":A2_6" function="internal">
        <lane id=":A2_6_0" index="0" speed="13.89" length="20.80" shape="260.40,754.80 239.60,754.80"/>
        <lane id=":A2_6_1" index="1" speed="13.89" length="20.80" shape="260.40,751.60 239.60,751.60"/>
    </edge>
    <edge id=":A2_8" function="internal">
        <lane id=":A2_8_0" index="0" speed="9.26" length="19.35" shape="260.40,751.60 255.15,750.85 251.40,748.60 249.15,744.85 248.40,739.60"/>
    </edge>
    <edge id=":A2_9" function="internal">
        <lane id=":A2_9_0" index="0" speed="3.65" length="4.67" shape="260.40,751.60 259.20,750.80 258.80,750.00 259.20,749.20 260.40,748.40"/>
    </edge>
    <edge id=":A2_10" function="internal">
        <lane id=":A2_10_0" index="0" speed="6.51" length="9.03" shape="254.80,739.60 255.15,742.05 256.20,743.80 257.95,744.85 260.40,745.20"/>
    </edge>
    <edge id=":A2_11" function="internal">
        <lane id=":A2_11_0" index="0" speed="13.89" length="20.80" shape="254.80,739.60 254.80,760.40"/>
        <lane id=":A2_11_1" index="1" speed="13.89" length="20.80" shape="251.60,739.60 251.60,760.40"/>
    </edge>
    <edge id=":A2_13" function="internal">
        <lane id=":A2_13_0" index="0" speed="9.26" length="6.96" shape="251.60,739.60 250.85,744.85 250.00,746.27"/>
    </edge>
    <edge id=":A2_14" function="internal">
        <lane id=":A2_14_0" index="0" speed="3.65" length="2.34" shape="251.60,739.60 250.80,740.80 250.00,741.20"/>
    </edge>
    <edge id=":A2_22" function="internal">
        <lane id=":A2_22_0" index="0" speed="9.26" length="12.40" shape="250.00,746.27 248.60,748.60 244.85,750.85 239.60,751.60"/>
    </edge>
    <edge id=":A2_23" function="internal">
        <lane id=":A2_23_0" index="0" speed="3.65" length="2.34" shape="250.00,741.20 249.20,740.80 248.40,739.60"/>
    </edge>
    <edge id=":A2_15" function="internal">
        <lane id=":A2_15_0" index="0" speed="6.51" length="9.03" shape="239.60,745.20 242.05,744.85 243.80,743.80 244.85,742.05 245.20,739.60"/>
    </edge>
    <edge id=":A2_16" function="internal">
        <lane id=":A2_16_0" index="0" speed="13.89" length="20.80" shape="239.60,745.20 260.40,745.20"/>
        <lane id=":A2_16_1" index="1" speed="13.89" length="20.80" shape="239.60,748.40 260.40,748.40"/>
    </edge>
    <edge id=":A2_18" function="internal">
        <lane id=":A2_18_0" index="0" speed="9.26" length="19.35" shape="239.60,748.40 244.85,749.15 248.60,751.40 250.85,755.15 251.60,760.40"/>
    </edge>
    <edge id=":A2_19" function="internal">
        <lane id=":A2_19_0" index="0" speed="3.65" length="4.67" shape="239.60,748.40 240.80,749.20 241.20,750.00 240.80,750.80 239.60,751.60"/>
    </edge>
    <edge id=":A3_0" function="internal">
        <lane id=":A3_0_0" index="0" speed="6.51" length="9.03" shape="245.20,1010.40 244.85,1007.95 243.80,1006.20 242.05,1005.15 239.60,1004.80"/>
    </edge>
    <edge id=":A3_1" function="internal">
        <lane id=":A3_1_0" index="0" speed="13.89" length="20.80" shape="245.20,1010.40 245.20,989.60"/>
        <lane id=":A3_1_1" index="1" speed="13.89" length="20.80" shape="248.40,1010.40 248.40,989.60"/>
    </edge>
    <edge id=":A3_3" function="internal">
        <lane id=":A3_3_0" index="0" speed="9.26" length="6.96" shape="248.40,1010.40 249.15,1005.15 250.00,1003.73"/>
    </edge>
    <edge id=":A3_4" function="internal">
        <lane id=":A3_4_0" index="0" speed="3.65" length="2.34" shape="248.40,1010.40 249.20,1009.20 250.00,1008.80"/>
    </edge>
    <edge id=":A3_20" function="internal">
        <lane id=":A3_20_0" index="0" speed="9.26" length="12.40" shape="250.00,1003.73 251.40,1001.40 255.15,999.15 260.40,998.40"/>
    </edge>
    <edge id=":A3_21" function="internal">
        <lane id=":A3_21_0" index="0" speed="3.65" length="2.34" shape="250.00,1008.80 250.80,1009.20 251.60,1010.40"/>
    </edge>
    <edge id=":A3_5" function="internal">
        <lane id=":A3_5_0" index="0" speed="6.51" length="9.03" shape="260.40,1004.80 257.95,1005.15 256.20,1006.20 255.15,1007.95 254.80,1010.40"/>
    </edge>
    <edge id=":A3_6" function="internal">
        <lane id=":A3_6_0" index="0" speed="13.89" length="20.80" shape="260.40,1004.80 239.60,1004.80"/>
        <lane id=":A3_6_1" index="1" speed="13.89" length="20.80" shape="260.40,1001.60 239.60,1001.60"/>
    </edge>
    <edge id=":A3_8" function="internal">
        <lane id=":A3_8_0" index="0" speed="9.26" length="19.35" shape="260.40,1001.60 255.15,1000.85 251.40,998.60 249.15,994.85 248.40,989.60"/>
    </edge>
    <edge id=":A3_9" function="internal">
        <lane id=":A3_9_0" index="0" speed="3.65" length="4.67" shape="260.40,1001.60 259.20,1000.80 258.80,1000.00 259.20,999.20 260.40,998.40"/>
    </edge>
    <edge id=":A3_10" function="internal">
        <lane id=":A3_10_0" index="0" speed="6.51" length="9.03" shape="254.80,989.60 255.15,992.05 256.20,993.80 257.95,994.85 260.40,995.20"/>
    </edge>
    <edge id=":A3_11" function="internal">
        <lane id=":A3_11_0" index="0" speed="13.89" length="20.80" shape="254.80,989.60 254.80,1010.40"/>
        <lane id=":A3_11_1" index="1" speed="13.89" length="20.80" shape="251.60,989.60 251.60,1010.40"/>
    </edge>
    <edge id=":A3_13" function="internal">
        <lane id=":A3_13_0" index="0" speed="9.26" length="6.96" shape="251.60,989.60 250.85,994.85 250.00,996.27"/>
    </edge>
    <edge id=":A3_14" function="internal">
        <lane id=":A3_14_0" index="0" speed="3.65" length="2.34" shape="251.60,989.60 250.80,990.80 250.00,991.20"/>
    </edge>
    <edge id=":A3_22" function="internal">
        <lane id=":A3_22_0" index="0" speed="9.26" length="12.40" shape="250.00,996.27 248.60,998.60 244.85,1000.85 239.60,1001.60"/>
    </edge>
    <edge id=":A3_23" function="internal">
        <lane id=":A3_23_0" index="0" speed="3.65" length="2.34" shape="250.00,991.20 249.20,990.80 248.40,989.60"/>
    </edge>
    <edge id=":A3_15" function="internal">
        <lane id=":A3_15_0" index="0" speed="6.51" length="9.03" shape="239.60,995.20 242.05,994.85 243.80,993.80 244.85,992.05 245.20,989.60"/>
    </edge>
    <edge id=":A3_16" function="internal">
        <lane id=":A3_16_0" index="0" speed="13.89" length="20.80" shape="239.60,995.20 260.40,995.20"/>
        <lane id=":A3_16_1" index="1" speed="13.89" length="20.80" shape="239.60,998.40 260.40,998.40"/>
    </edge>
    <edge id=":A3_18" function="internal">
        <lane id=":A3_18_0" index="0" speed="9.26" length="19.35" shape="239.60,998.40 244.85,999.15 248.60,1001.40 250.85,1005.15 251.60,1010.40"/>
    </edge>
    <edge id=":A3_19" function="internal">
        <lane id=":A3_19_0" index="0" speed="3.65" length="4.67" shape="239.60,998.40 240.80,999.20 241.20,1000.00 240.80,1000.80 239.60,1001.60"/>
    </edge>
    <edge id=":A4_0" function="internal">
        <lane id=":A4_0_0" index="0" speed="6.51" length="9.03" shape="245.20,1260.40 244.85,1257.95 243.80,1256.20 242.05,1255.15 239.60,1254.80"/>
    </edge>
    <edge id=":A4_1" function="internal">
        <lane id=":A4_1_0" index="0" speed="13.89" length="20.80" shape="245.20,1260.40 245.20,1239.60"/>
        <lane id=":A4_1_1" index="1" speed="13.89" length="20.80" shape="248.40,1260.40 248.40,1239.60"/>
    </edge>
    <edge id=":A4_3" function="internal">
        <lane id=":A4_3_0" index="0" speed="9.26" length="6.96" shape="248.40,1260.40 249.15,1255.15 250.00,1253.73"/>
    </edge>
    <edge id=":A4_4" function="internal">
        <lane id=":A4_4_0" index="0" speed="3.65" length="2.34" shape="248.40,1260.40 249.20,1259.20 250.00,1258.80"/>
    </edge>
    <edge id=":A4_20" function="internal">
        <lane id=":A4_20_0" index="0" speed="9.26" length="12.40" shape="250.00,1253.73 251.40,1251.40 255.15,1249.15 260.40,1248.40"/>
    </edge>
    <edge id=":A4_21" function="internal">
        <lane id=":A4_21_0" index="0" speed="3.65" length="2.34" shape="250.00,1258.80 250.80,1259.20 251.60,1260.40"/>
    </edge>
    <edge id=":A4_5" function="internal">
        <lane id=":A4_5_0" index="0" speed="6.51" length="9.03" shape="260.40,1254.80 257.95,1255.15 256.20,1256.20 255.15,1257.95 254.80,1260.40"/>
    </edge>
    <edge id=":A4_6" function="internal">
        <lane id=":A4_6_0" index="0" speed="13.89" length="20.80" shape="260.40,1254.80 239.60,1254.80"/>
        <lane id=":A4_6_1" index="1" speed="13.89" length="20.80" shape="260.40,1251.60 239.60,1251.60"/>
    </edge>
    <edge id=":A4_8" function="internal">
        <lane id=":A4_8_0" index="0" speed="9.26" length="19.35" shape="260.40,1251.60 255.15,1250.85 251.40,1248.60 249.15,1244.85 248.40,1239.60"/>
    </edge>
    <edge id=":A4_9" function="internal">
        <lane id=":A4_9_0" index="0" speed="3.65" length="4.67" shape="260.40,1251.60 259.20,1250.80 258.80,1250.00 259.20,1249.20 260.40,1248.40"/>
    </edge>
    <edge id=":A4_10" function="internal">
        <lane id=":A4_10_0" index="0" speed="6.51" length="9.03" shape="254.80,1239.60 255.15,1242.05 256.20,1243.80 257.95,1244.85 260.40,1245.20"/>
    </edge>
    <edge id=":A4_11" function="internal">
        <lane id=":A4_11_0" index="0" speed="13.89" length="20.80" shape="254.80,1239.60 254.80,1260.40"/>
        <lane id=":A4_11_1" index="1" speed="13.89" length="20.80" shape="251.60,1239.60 251.60,1260.40"/>
    </edge>
    <edge id=":A4_13" function="internal">
        <lane id=":A4_13_0" index="0" speed="9.26" length="6.96" shape="251.60,1239.60 250.85,1244.85 250.00,1246.27"/>
    </edge>
    <edge id=":A4_14" function="internal">
        <lane id=":A4_14_0" index="0" speed="3.65" length="2.34" shape="251.60,1239.60 250.80,1240.80 250.00,1241.20"/>
    </edge>
    <edge id=":A4_22" function="internal">
        <lane id=":A4_22_0" index="0" speed="9.26" length="12.40" shape="250.00,1246.27 248.60,1248.60 244.85,1250.85 239.60,1251.60"/>
    </edge>
    <edge id=":A4_23" function="internal">
        <lane id=":A4_23_0" index="0" speed="3.65" length="2.34" shape="250.00,1241.20 249.20,1240.80 248.40,1239.60"/>
    </edge>
    <edge id=":A4_15" function="internal">
        <lane id=":A4_15_0" index="0" speed="6.51" length="9.03" shape="239.60,1245.20 242.05,1244.85 243.80,1243.80 244.85,1242.05 245.20,1239.60"/>
    </edge>
    <edge id=":A4_16" function="internal">
        <lane id=":A4_16_0" index="0" speed="13.89" length="20.80" shape="239.60,1245.20 260.40,1245.20"/>
        <lane id=":A4_16_1" index="1" speed="13.89" length="20.80" shape="239.60,1248.40 260.40,1248.40"/>
    </edge>
    <edge id=":A4_18" function="internal">
        <lane id=":A4_18_0" index="0" speed="9.26" length="19.35" shape="239.60,1248.40 244.85,1249.15 248.60,1251.40 250.85,1255.15 251.60,1260.40"/>
    </edge>
    <edge id=":A4_19" function="internal">
        <lane id=":A4_19_0" index="0" speed="3.65" length="4.67" shape="239.60,1248.40 240.80,1249.20 241.20,1250.00 240.80,1250.80 239.60,1251.60"/>
    </edge>
    <edge id=":B0_0" function="internal">
        <lane id=":B0_0_0" index="0" speed="6.51" length="9.03" shape="495.20,260.40 494.85,257.95 493.80,256.20 492.05,255.15 489.60,254.80"/>
    </edge>
    <edge id=":B0_1" function="internal">
        <lane id=":B0_1_0" index="0" speed="13.89" length="20.80" shape="495.20,260.40 495.20,239.60"/>
        <lane id=":B0_1_1" index="1" speed="13.89" length="20.80" shape="498.40,260.40 498.40,239.60"/>
    </edge>
    <edge id=":B0_3" function="internal">
        <lane id=":B0_3_0" index="0" speed="9.26" length="6.96" shape="498.40,260.40 499.15,255.15 500.00,253.73"/>
    </edge>
    <edge id=":B0_4" function="internal">
        <lane id=":B0_4_0" index="0" speed="3.65" length="2.34" shape="498.40,260.40 499.20,259.20 500.00,258.80"/>
    </edge>
    <edge id=":B0_20" function="internal">
        <lane id=":B0_20_0" index="0" speed="9.26" length="12.40" shape="500.00,253.73 501.40,251.40 505.15,249.15 510.40,248.40"/>
    </edge>
    <edge id=":B0_21" function="internal">
        <lane id=":B0_21_0" index="0" speed="3.65" length="2.34" shape="500.00,258.80 500.80,259.20 501.60,260.40"/>
    </edge>
    <edge id=":B0_5" function="internal">
        <lane id=":B0_5_0" index="0" speed="6.51" length="9.03" shape="510.40,254.80 507.95,255.15 506.20,256.20 505.15,257.95 504.80,260.40"/>
    </edge>
    <edge id=":B0_6" function="internal">
        <lane id=":B0_6_0" index="0" speed="13.89" length="20.80" shape="510.40,254.80 489.60,254.80"/>
        <lane id=":B0_6_1" index="1" speed="13.89" length="20.80" shape="510.40,251.60 489.60,251.60"/>
    </edge>
    <edge id=":B0_8" function="internal">
        <lane id=":B0_8_0" index="0" speed="9.26" length="19.35" shape="510.40,251.60 505.15,250.85 501.40,248.60 499.15,244.85 498.40,239.60"/>
    </edge>
    <edge id=":B0_9" function="internal">
        <lane id=":B0_9_0" index="0" speed="3.65" length="4.67" shape="510.40,251.60 509.20,250.80 508.80,250.00 509.20,249.20 510.40,248.40"/>
    </edge>
    <edge id=":B0_10" function="internal">
        <lane id=":B0_10_0" index="0" speed="6.51" length="9.03" shape="504.80,239.60 505.15,242.05 506.20,243.80 507.95,244.85 510.40,245.20"/>
    </edge>
    <edge id=":B0_11" function="internal">
        <lane id=":B0_11_0" index="0" speed="13.89" length="20.80" shape="504.80,239.60 504.80,260.40"/>
        <lane id=":B0_11_1" index="1" speed="13.89" length="20.80" shape="501.60,239.60 501.60,260.40"/>
    </edge>
    <edge id=":B0_13" function="internal">
        <lane id=":B0_13_0" index="0" speed="9.26" length="6.96" shape="501.60,239.60 500.85,244.85 500.00,246.27"/>
    </edge>
    <edge id=":B0_14" function="internal">
        <lane id=":B0_14_0" index="0" speed="3.65" length="2.34" shape="501.60,239.60 500.80,240.80 500.00,241.20"/>
    </edge>
    <edge id=":B0_22" function="internal">
        <lane id=":B0_22_0" index="0" speed="9.26" length="12.40" shape="500.00,246.27 498.60,248.60 494.85,250.85 489.60,251.60"/>
    </edge>
    <edge id=":B0_23" function="internal">
        <lane id=":B0_23_0" index="0" speed="3.65" length="2.34" shape="500.00,241.20 499.20,240.80 498.40,239.60"/>
    </edge>
    <edge id=":B0_15" function="internal">
        <lane id=":B0_15_0" index="0" speed="6.51" length="9.03" shape="489.60,245.20 492.05,244.85 493.80,243.80 494.85,242.05 495.20,239.60"/>
    </edge>
    <edge id=":B0_16" function="internal">
        <lane id=":B0_16_0" index="0" speed="13.89" length="20.80" shape="489.60,245.20 510.40,245.20"/>
        <lane id=":B0_16_1" index="1" speed="13.89" length="20.80" shape="489.60,248.40 510.40,248.40"/>
    </edge>
    <edge id=":B0_18" function="internal">
        <lane id=":B0_18_0" index="0" speed="9.26" length="19.35" shape="489.60,248.40 494.85,249.15 498.60,251.40 500.85,255.15 501.60,260.40"/>
    </edge>
    <edge id=":B0_19" function="internal">
        <lane id=":B0_19_0" index="0" speed="3.65" length="4.67" shape="489.60,248.40 490.80,249.20 491.20,250.00 490.80,250.80 489.60,251.60"/>
    </edge>
    <edge id=":B1_0" function="internal">
        <lane id=":B1_0_0" index="0" speed="6.51" length="9.03" shape="495.20,510.40 494.85,507.95 493.80,506.20 492.05,505.15 489.60,504.80"/>
    </edge>
    <edge id=":B1_1" function="internal">
        <lane id=":B1_1_0" index="0" speed="13.89" length="20.80" shape="495.20,510.40 495.20,489.60"/>
        <lane id=":B1_1_1" index="1" speed="13.89" length="20.80" shape="498.40,510.40 498.40,489.60"/>
    </edge>
    <edge id=":B1_3" function="internal">
        <lane id=":B1_3_0" index="0" speed="9.26" length="6.96" shape="498.40,510.40 499.15,505.15 500.00,503.73"/>
    </edge>
    <edge id=":B1_4" function="internal">
        <lane id=":B1_4_0" index="0" speed="3.65" length="2.34" shape="498.40,510.40 499.20,509.20 500.00,508.80"/>
    </edge>
    <edge id=":B1_20" function="internal">
        <lane id=":B1_20_0" index="0" speed="9.26" length="12.40" shape="500.00,503.73 501.40,501.40 505.15,499.15 510.40,498.40"/>
    </edge>
    <edge id=":B1_21" function="internal">
        <lane id=":B1_21_0" index="0" speed="3.65" length="2.34" shape="500.00,508.80 500.80,509.20 501.60,510.40"/>
    </edge>
    <edge id=":B1_5" function="internal">
        <lane id=":B1_5_0" index="0" speed="6.51" length="9.03" shape="510.40,504.80 507.95,505.15 506.20,506.20 505.15,507.95 504.80,510.40"/>
    </edge>
    <edge id=":B1_6" function="internal">
        <lane id=":B1_6_0" index="0" speed="13.89" length="20.80" shape="510.40,504.80 489.60,504.80"/>
        <lane id=":B1_6_1" index="1" speed="13.89" length="20.80" shape="510.40,501.60 489.60,501.60"/>
    </edge>
    <edge id=":B1_8" function="internal">
        <lane id=":B1_8_0" index="0" speed="9.26" length="19.35" shape="510.40,501.60 505.15,500.85 501.40,498.60 499.15,494.85 498.40,489.60"/>
    </edge>
    <edge id=":B1_9" function="internal">
        <lane id=":B1_9_0" index="0" speed="3.65" length="4.67" shape="510.40,501.60 509.20,500.80 508.80,500.00 509.20,499.20 510.40,498.40"/>
    </edge>
    <edge id=":B1_10" function="internal">
        <lane id=":B1_10_0" index="0" speed="6.51" length="9.03" shape="504.80,489.60 505.15,492.05 506.20,493.80 507.95,494.85 510.40,495.20"/>
    </edge>
    <edge id=":B1_11" function="internal">
        <lane id=":B1_11_0" index="0" speed="13.89" length="20.80" shape="504.80,489.60 504.80,510.40"/>
        <lane id=":B1_11_1" index="1" speed="13.89" length="20.80" shape="501.60,489.60 501.60,510.40"/>
    </edge>
    <edge id=":B1_13" function="internal">
        <lane id=":B1_13_0" index="0" speed="9.26" length="6.96" shape="501.60,489.60 500.85,494.85 500.00,496.27"/>
    </edge>
    <edge id=":B1_14" function="internal">
        <lane id=":B1_14_0" index="0" speed="3.65" length="2.34" shape="501.60,489.60 500.80,490.80 500.00,491.20"/>
    </edge>
    <edge id=":B1_22" function="internal">
        <lane id=":B1_22_0" index="0" speed="9.26" length="12.40" shape="500.00,496.27 498.60,498.60 494.85,500.85 489.60,501.60"/>
    </edge>
    <edge id=":B1_23" function="internal">
        <lane id=":B1_23_0" index="0" speed="3.65" length="2.34" shape="500.00,491.20 499.20,490.80 498.40,489.60"/>
    </edge>
    <edge id=":B1_15" function="internal">
        <lane id=":B1_15_0" index="0" speed="6.51" length="9.03" shape="489.60,495.20 492.05,494.85 493.80,493.80 494.85,492.05 495.20,489.60"/>
    </edge>
    <edge id=":B1_16" function="internal">
        <lane id=":B1_16_0" index="0" speed="13.89" length="20.80" shape="489.60,495.20 510.40,495.20"/>
        <lane id=":B1_16_1" index="1" speed="13.89" length="20.80" shape="489.60,498.40 510.40,498.40"/>
    </edge>
    <edge id=":B1_18" function="internal">
        <lane id=":B1_18_0" index="0" speed="9.26" length="19.35" shape="489.60,498.40 494.85,499.15 498.60,501.40 500.85,505.15 501.60,510.40"/>
    </edge>
    <edge id=":B1_19" function="internal">
        <lane id=":B1_19_0" index="0" speed="3.65" length="4.67" shape="489.60,498.40 490.80,499.20 491.20,500.00 490.80,500.80 489.60,501.60"/>
    </edge>
    <edge id=":B2_0" function="internal">
        <lane id=":B2_0_0" index="0" speed="6.51" length="9.03" shape="495.20,760.40 494.85,757.95 493.80,756.20 492.05,755.15 489.60,754.80"/>
    </edge>
    <edge id=":B2_1" function="internal">
        <lane id=":B2_1_0" index="0" speed="13.89" length="20.80" shape="495.20,760.40 495.20,739.60"/>
        <lane id=":B2_1_1" index="1" speed="13.89" length="20.80" shape="498.40,760.40 498.40,739.60"/>
    </edge>
    <edge id=":B2_3" function="internal">