<?xml version="1.0" encoding="UTF-8"?>

<!-- generated on Wed Jun 23 15:06:29 2021 by Eclipse SUMO duarouter Version 1.7.0
<configuration xmlns:xsi="http://www.w3.org/2001/XMLSchema-instance" xsi:noNamespaceSchemaLocation="http://sumo.dlr.de/xsd/duarouterConfiguration.xsd">

    <input>
        <net-file value="meta.net.xml"/>
        <route-files value="meta.flows.xml"/>
    </input>

    <output>
        <output-file value="meta.rou.xml"/>
        <alternatives-output value="meta.rou.alt.xml"/>
    </output>

    <report>
        <no-warnings value="true"/>
    </report>

</configuration>
-->

<routes xmlns:xsi="http://www.w3.org/2001/XMLSchema-instance" xsi:noNamespaceSchemaLocation="http://sumo.dlr.de/xsd/routes_file.xsd">
    <vehicle id="bottom0A0-A2left2.0" depart="0.00">
        <route edges="bottom0A0 A0A1 A1A2 A2left2"/>
    </vehicle>
    <vehicle id="bottom0A0-A3left3.0" depart="0.00">
        <route edges="bottom0A0 A0A1 A1A2 A2A3 A3left3"/>
    </vehicle>
    <vehicle id="bottom0A0-A4left4.0" depart="0.00">
        <route edges="bottom0A0 A0A1 A1A2 A2A3 A3A4 A4left4"/>
    </vehicle>
    <vehicle id="bottom0A0-A4top0.0" depart="0.00">
        <route edges="bottom0A0 A0A1 A1A2 A2A3 A3A4 A4top0"/>
    </vehicle>
    <vehicle id="bottom0A0-B4top1.0" depart="0.00">
        <route edges="bottom0A0 A0A1 A1B1 B1B2 B2B3 B3B4 B4top1"/>
    </vehicle>
    <vehicle id="bottom0A0-C4top2.0" depart="0.00">
        <route edges="bottom0A0 A0B0 B0C0 C0C1 C1C2 C2C3 C3C4 C4top2"/>
    </vehicle>
    <vehicle id="bottom0A0-D4top3.0" depart="0.00">
        <route edges="bottom0A0 A0A1 A1A2 A2A3 A3A4 A4B4 B4C4 C4D4 D4top3"/>
    </vehicle>
    <vehicle id="bottom0A0-E0right0.0" depart="0.00">
        <route edges="bottom0A0 A0B0 B0C0 C0D0 D0E0 E0right0"/>
    </vehicle>
    <vehicle id="bottom0A0-E1right1.0" depart="0.00">
        <route edges="bottom0A0 A0A1 A1B1 B1C1 C1D1 D1E1 E1right1"/>
    </vehicle>
    <vehicle id="bottom0A0-E2right2.0" depart="0.00">
        <route edges="bottom0A0 A0A1 A1A2 A2B2 B2C2 C2D2 D2E2 E2right2"/>
    </vehicle>
    <vehicle id="bottom0A0-E3right3.0" depart="0.00">
        <route edges="bottom0A0 A0A1 A1A2 A2A3 A3B3 B3C3 C3D3 D3E3 E3right3"/>
    </vehicle>
    <vehicle id="bottom0A0-E4right4.0" depart="0.00">
        <route edges="bottom0A0 A0A1 A1A2 A2A3 A3A4 A4B4 B4C4 C4D4 D4E4 E4right4"/>
    </vehicle>
    <vehicle id="bottom0A0-E4top4.0" depart="0.00">
        <route edges="bottom0A0 A0A1 A1A2 A2B2 B2C2 C2D2 D2E2 E2E3 E3E4 E4top4"/>
    </vehicle>
    <vehicle id="bottom1B0-A0left0.0" depart="0.00">
        <route edges="bottom1B0 B0A0 A0left0"/>
    </vehicle>
    <vehicle id="bottom1B0-A1left1.0" depart="0.00">
        <route edges="bottom1B0 B0B1 B1A1 A1left1"/>
    </vehicle>
    <vehicle id="bottom1B0-A2left2.0" depart="0.00">
        <route edges="bottom1B0 B0B1 B1B2 B2A2 A2left2"/>
    </vehicle>
    <vehicle id="bottom1B0-A3left3.0" depart="0.00">
        <route edges="bottom1B0 B0B1 B1B2 B2B3 B3A3 A3left3"/>
    </vehicle>
    <vehicle id="bottom1B0-A4left4.0" depart="0.00">
        <route edges="bottom1B0 B0B1 B1B2 B2B3 B3B4 B4A4 A4left4"/>
    </vehicle>
    <vehicle id="bottom1B0-A4top0.0" depart="0.00">
        <route edges="bottom1B0 B0B1 B1A1 A1A2 A2A3 A3A4 A4top0"/>
    </vehicle>
    <vehicle id="bottom1B0-B4top1.0" depart="0.00">
        <route edges="bottom1B0 B0B1 B1B2 B2B3 B3B4 B4top1"/>
    </vehicle>
    <vehicle id="bottom1B0-C4top2.0" depart="0.00">
        <route edges="bottom1B0 B0B1 B1C1 C1C2 C2C3 C3C4 C4top2"/>
    </vehicle>
    <vehicle id="bottom1B0-D4top3.0" depart="0.00">
        <route edges="bottom1B0 B0C0 C0D0 D0D1 D1D2 D2D3 D3D4 D4top3"/>
    </vehicle>
    <vehicle id="bottom1B0-E0right0.0" depart="0.00">
        <route edges="bottom1B0 B0C0 C0D0 D0E0 E0right0"/>
    </vehicle>
    <vehicle id="bottom1B0-E1right1.0" depart="0.00">
        <route edges="bottom1B0 B0B1 B1C1 C1D1 D1E1 E1right1"/>
    </vehicle>
    <vehicle id="bottom1B0-E2right2.0" depart="0.00">
        <route edges="bottom1B0 B0B1 B1B2 B2C2 C2D2 D2E2 E2right2"/>
    </vehicle>
    <vehicle id="bottom1B0-E3right3.0" depart="0.00">
        <route edges="bottom1B0 B0B1 B1B2 B2B3 B3C3 C3D3 D3E3 E3right3"/>
    </vehicle>
    <vehicle id="bottom1B0-E4right4.0" depart="0.00">
        <route edges="bottom1B0 B0B1 B1B2 B2B3 B3B4 B4C4 C4D4 D4E4 E4right4"/>
    </vehicle>
    <vehicle id="bottom1B0-E4top4.0" depart="0.00">
        <route edges="bottom1B0 B0B1 B1B2 B2B3 B3B4 B4C4 C4D4 D4E4 E4top4"/>
    </vehicle>
    <vehicle id="bottom2C0-A0left0.0" depart="0.00">
        <route edges="bottom2C0 C0B0 B0A0 A0left0"/>
    </vehicle>
    <vehicle id="bottom2C0-A1left1.0" depart="0.00">
        <route edges="bottom2C0 C0C1 C1B1 B1A1 A1left1"/>
    </vehicle>
    <vehicle id="bottom2C0-A2left2.0" depart="0.00">
        <route edges="bottom2C0 C0C1 C1C2 C2B2 B2A2 A2left2"/>
    </vehicle>
    <vehicle id="bottom2C0-A3left3.0" depart="0.00">
        <route edges="bottom2C0 C0C1 C1C2 C2C3 C3B3 B3A3 A3left3"/>
    </vehicle>
    <vehicle id="bottom2C0-A4left4.0" depart="0.00">
        <route edges="bottom2C0 C0C1 C1C2 C2C3 C3C4 C4B4 B4A4 A4left4"/>
    </vehicle>
    <vehicle id="bottom2C0-A4top0.0" depart="0.00">
        <route edges="bottom2C0 C0B0 B0A0 A0A1 A1A2 A2A3 A3A4 A4top0"/>
    </vehicle>
    <vehicle id="bottom2C0-C4top2.0" depart="0.00">
        <route edges="bottom2C0 C0C1 C1C2 C2C3 C3C4 C4top2"/>
    </vehicle>
    <vehicle id="bottom2C0-D4top3.0" depart="0.00">
        <route edges="bottom2C0 C0C1 C1D1 D1D2 D2D3 D3D4 D4top3"/>
    </vehicle>
    <vehicle id="bottom2C0-E1right1.0" depart="0.00">
        <route edges="bottom2C0 C0C1 C1D1 D1E1 E1right1"/>
    </vehicle>
    <vehicle id="bottom2C0-E2right2.0" depart="0.00">
        <route edges="bottom2C0 C0C1 C1C2 C2D2 D2E2 E2right2"/>
    </vehicle>
    <vehicle id="bottom2C0-E3right3.0" depart="0.00">
        <route edges="bottom2C0 C0C1 C1C2 C2C3 C3D3 D3E3 E3right3"/>
    </vehicle>
    <vehicle id="bottom2C0-E4right4.0" depart="0.00">
        <route edges="bottom2C0 C0C1 C1C2 C2C3 C3C4 C4D4 D4E4 E4right4"/>
    </vehicle>
    <vehicle id="bottom2C0-E4top4.0" depart="0.00">
        <route edges="bottom2C0 C0D0 D0E0 E0E1 E1E2 E2E3 E3E4 E4top4"/>
    </vehicle>
    <vehicle id="bottom3D0-A0left0.0" depart="0.00">
        <route edges="bottom3D0 D0C0 C0B0 B0A0 A0left0"/>
    </vehicle>
    <vehicle id="bottom3D0-A1left1.0" depart="0.00">
        <route edges="bottom3D0 D0D1 D1C1 C1B1 B1A1 A1left1"/>
    </vehicle>
    <vehicle id="bottom3D0-A2left2.0" depart="0.00">
        <route edges="bottom3D0 D0D1 D1D2 D2C2 C2B2 B2A2 A2left2"/>
    </vehicle>
    <vehicle id="bottom3D0-A3left3.0" depart="0.00">
        <route edges="bottom3D0 D0D1 D1D2 D2D3 D3C3 C3B3 B3A3 A3left3"/>
    </vehicle>
    <vehicle id="bottom3D0-A4left4.0" depart="0.00">
        <route edges="bottom3D0 D0D1 D1D2 D2D3 D3D4 D4C4 C4B4 B4A4 A4left4"/>
    </vehicle>
    <vehicle id="bottom3D0-A4top0.0" depart="0.00">
        <route edges="bottom3D0 D0D1 D1D2 D2D3 D3D4 D4C4 C4B4 B4A4 A4top0"/>
    </vehicle>
    <vehicle id="bottom3D0-B4top1.0" depart="0.00">
        <route edges="bottom3D0 D0C0 C0B0 B0B1 B1B2 B2B3 B3B4 B4top1"/>
    </vehicle>
    <vehicle id="bottom3D0-C4top2.0" depart="0.00">
        <route edges="bottom3D0 D0D1 D1C1 C1C2 C2C3 C3C4 C4top2"/>
    </vehicle>
    <vehicle id="bottom3D0-D4top3.0" depart="0.00">
        <route edges="bottom3D0 D0D1 D1D2 D2D3 D3D4 D4top3"/>
    </vehicle>
    <vehicle id="bottom3D0-E0right0.0" depart="0.00">
        <route edges="bottom3D0 D0E0 E0right0"/>
    </vehicle>
    <vehicle id="bottom3D0-E1right1.0" depart="0.00">
        <route edges="bottom3D0 D0D1 D1E1 E1right1"/>
    </vehicle>
    <vehicle id="bottom3D0-E2right2.0" depart="0.00">
        <route edges="bottom3D0 D0D1 D1D2 D2E2 E2right2"/>
    </vehicle>
    <vehicle id="bottom3D0-E3right3.0" depart="0.00">
        <route edges="bottom3D0 D0D1 D1D2 D2D3 D3E3 E3right3"/>
    </vehicle>
    <vehicle id="bottom3D0-E4right4.0" depart="0.00">
        <route edges="bottom3D0 D0D1 D1D2 D2D3 D3D4 D4E4 E4right4"/>
    </vehicle>
    <vehicle id="bottom3D0-E4top4.0" depart="0.00">
        <route edges="bottom3D0 D0D1 D1E1 E1E2 E2E3 E3E4 E4top4"/>
    </vehicle>
    <vehicle id="bottom4E0-A1left1.0" depart="0.00">
        <route edges="bottom4E0 E0E1 E1D1 D1C1 C1B1 B1A1 A1left1"/>
    </vehicle>
    <vehicle id="bottom4E0-A2left2.0" depart="0.00">
        <route edges="bottom4E0 E0E1 E1E2 E2D2 D2C2 C2B2 B2A2 A2left2"/>
    </vehicle>
    <vehicle id="bottom4E0-A3left3.0" depart="0.00">
        <route edges="bottom4E0 E0E1 E1E2 E2E3 E3D3 D3C3 C3B3 B3A3 A3left3"/>
    </vehicle>
    <vehicle id="bottom4E0-A4left4.0" depart="0.00">
        <route edges="bottom4E0 E0E1 E1E2 E2E3 E3E4 E4D4 D4C4 C4B4 B4A4 A4left4"/>
    </vehicle>
    <vehicle id="bottom4E0-A4top0.0" depart="0.00">
        <route edges="bottom4E0 E0E1 E1E2 E2D2 D2C2 C2B2 B2A2 A2A3 A3A4 A4top0"/>
    </vehicle>
    <vehicle id="bottom4E0-B4top1.0" depart="0.00">
        <route edges="bottom4E0 E0E1 E1E2 E2E3 E3E4 E4D4 D4C4 C4B4 B4top1"/>
    </vehicle>
    <vehicle id="bottom4E0-C4top2.0" depart="0.00">
        <route edges="bottom4E0 E0D0 D0C0 C0C1 C1C2 C2C3 C3C4 C4top2"/>
    </vehicle>
    <vehicle id="bottom4E0-D4top3.0" depart="0.00">
        <route edges="bottom4E0 E0E1 E1D1 D1D2 D2D3 D3D4 D4top3"/>
    </vehicle>
    <vehicle id="bottom4E0-E0right0.0" depart="0.00">
        <route edges="bottom4E0 E0right0"/>
    </vehicle>
    <vehicle id="bottom4E0-E1right1.0" depart="0.00">
        <route edges="bottom4E0 E0E1 E1right1"/>
    </vehicle>
    <vehicle id="bottom4E0-E2right2.0" depart="0.00">
        <route edges="bottom4E0 E0E1 E1E2 E2right2"/>
    </vehicle>
    <vehicle id="bottom4E0-E3right3.0" depart="0.00">
        <route edges="bottom4E0 E0E1 E1E2 E2E3 E3right3"/>
    </vehicle>
    <vehicle id="bottom4E0-E4right4.0" depart="0.00">
        <route edges="bottom4E0 E0E1 E1E2 E2E3 E3E4 E4right4"/>
    </vehicle>
    <vehicle id="bottom4E0-E4top4.0" depart="0.00">
        <route edges="bottom4E0 E0E1 E1E2 E2E3 E3E4 E4top4"/>
    </vehicle>
    <vehicle id="left0A0-A0bottom0.0" depart="0.00">
        <route edges="left0A0 A0bottom0"/>
    </vehicle>
    <vehicle id="left0A0-A4top0.0" depart="0.00">
        <route edges="left0A0 A0A1 A1A2 A2A3 A3A4 A4top0"/>
    </vehicle>
    <vehicle id="left0A0-B0bottom1.0" depart="0.00">
        <route edges="left0A0 A0B0 B0bottom1"/>
    </vehicle>
    <vehicle id="left0A0-B4top1.0" depart="0.00">
        <route edges="left0A0 A0B0 B0B1 B1B2 B2B3 B3B4 B4top1"/>
    </vehicle>
    <vehicle id="left0A0-C0bottom2.0" depart="0.00">
        <route edges="left0A0 A0B0 B0C0 C0bottom2"/>
    </vehicle>
    <vehicle id="left0A0-C4top2.0" depart="0.00">
        <route edges="left0A0 A0B0 B0C0 C0C1 C1C2 C2C3 C3C4 C4top2"/>
    </vehicle>
    <vehicle id="left0A0-D0bottom3.0" depart="0.00">
        <route edges="left0A0 A0B0 B0C0 C0D0 D0bottom3"/>
    </vehicle>
    <vehicle id="left0A0-D4top3.0" depart="0.00">
        <route edges="left0A0 A0B0 B0C0 C0D0 D0D1 D1D2 D2D3 D3D4 D4top3"/>
    </vehicle>
    <vehicle id="left0A0-E0bottom4.0" depart="0.00">
        <route edges="left0A0 A0B0 B0C0 C0D0 D0E0 E0bottom4"/>
    </vehicle>
    <vehicle id="left0A0-E0right0.0" depart="0.00">
        <route edges="left0A0 A0B0 B0C0 C0D0 D0E0 E0right0"/>
    </vehicle>
    <vehicle id="left0A0-E1right1.0" depart="0.00">
        <route edges="left0A0 A0B0 B0B1 B1C1 C1D1 D1E1 E1right1"/>
    </vehicle>
    <vehicle id="left0A0-E2right2.0" depart="0.00">
        <route edges="left0A0 A0A1 A1A2 A2B2 B2C2 C2D2 D2E2 E2right2"/>
    </vehicle>
    <vehicle id="left0A0-E3right3.0" depart="0.00">
        <route edges="left0A0 A0B0 B0C0 C0C1 C1C2 C2C3 C3D3 D3E3 E3right3"/>
    </vehicle>
    <vehicle id="left0A0-E4right4.0" depart="0.00">
        <route edges="left0A0 A0B0 B0C0 C0C1 C1C2 C2C3 C3C4 C4D4 D4E4 E4right4"/>
    </vehicle>
    <vehicle id="left0A0-E4top4.0" depart="0.00">
        <route edges="left0A0 A0B0 B0C0 C0D0 D0E0 E0E1 E1E2 E2E3 E3E4 E4top4"/>
    </vehicle>
    <vehicle id="left1A1-A0bottom0.0" depart="0.00">
        <route edges="left1A1 A1A0 A0bottom0"/>
    </vehicle>
    <vehicle id="left1A1-A4top0.0" depart="0.00">
        <route edges="left1A1 A1A2 A2A3 A3A4 A4top0"/>
    </vehicle>
    <vehicle id="left1A1-B0bottom1.0" depart="0.00">
        <route edges="left1A1 A1B1 B1B0 B0bottom1"/>
    </vehicle>
    <vehicle id="left1A1-B4top1.0" depart="0.00">
        <route edges="left1A1 A1B1 B1B2 B2B3 B3B4 B4top1"/>
    </vehicle>
    <vehicle id="left1A1-C4top2.0" depart="0.00">
        <route edges="left1A1 A1B1 B1C1 C1C2 C2C3 C3C4 C4top2"/>
    </vehicle>
    <vehicle id="left1A1-D0bottom3.0" depart="0.00">
        <route edges="left1A1 A1B1 B1C1 C1D1 D1D0 D0bottom3"/>
    </vehicle>
    <vehicle id="left1A1-D4top3.0" depart="0.00">
        <route edges="left1A1 A1B1 B1C1 C1D1 D1D2 D2D3 D3D4 D4top3"/>
    </vehicle>
    <vehicle id="left1A1-E0bottom4.0" depart="0.00">
        <route edges="left1A1 A1B1 B1C1 C1D1 D1E1 E1E0 E0bottom4"/>
    </vehicle>
    <vehicle id="left1A1-E0right0.0" depart="0.00">
        <route edges="left1A1 A1B1 B1B0 B0C0 C0D0 D0E0 E0right0"/>
    </vehicle>
    <vehicle id="left1A1-E1right1.0" depart="0.00">
        <route edges="left1A1 A1B1 B1C1 C1D1 D1E1 E1right1"/>
    </vehicle>
    <vehicle id="left1A1-E2right2.0" depart="0.00">
        <route edges="left1A1 A1B1 B1B2 B2C2 C2D2 D2E2 E2right2"/>
    </vehicle>
    <vehicle id="left1A1-E3right3.0" depart="0.00">
        <route edges="left1A1 A1A2 A2A3 A3B3 B3C3 C3D3 D3E3 E3right3"/>
    </vehicle>
    <vehicle id="left1A1-E4right4.0" depart="0.00">
        <route edges="left1A1 A1B1 B1C1 C1C2 C2C3 C3C4 C4D4 D4E4 E4right4"/>
    </vehicle>
    <vehicle id="left1A1-E4top4.0" depart="0.00">
        <route edges="left1A1 A1B1 B1C1 C1D1 D1E1 E1E2 E2E3 E3E4 E4top4"/>
    </vehicle>
    <vehicle id="left2A2-A0bottom0.0" depart="0.00">
        <route edges="left2A2 A2A1 A1A0 A0bottom0"/>
    </vehicle>
    <vehicle id="left2A2-A4top0.0" depart="0.00">
        <route edges="left2A2 A2A3 A3A4 A4top0"/>
    </vehicle>
    <vehicle id="left2A2-B0bottom1.0" depart="0.00">
        <route edges="left2A2 A2B2 B2B1 B1B0 B0bottom1"/>
    </vehicle>
    <vehicle id="left2A2-B4top1.0" depart="0.00">
        <route edges="left2A2 A2B2 B2B3 B3B4 B4top1"/>
    </vehicle>
    <vehicle id="left2A2-C0bottom2.0" depart="0.00">
        <route edges="left2A2 A2B2 B2C2 C2C1 C1C0 C0bottom2"/>
    </vehicle>
    <vehicle id="left2A2-C4top2.0" depart="0.00">
        <route edges="left2A2 A2B2 B2C2 C2C3 C3C4 C4top2"/>
    </vehicle>
    <vehicle id="left2A2-D0bottom3.0" depart="0.00">
        <route edges="left2A2 A2B2 B2C2 C2D2 D2D1 D1D0 D0bottom3"/>
    </vehicle>
    <vehicle id="left2A2-D4top3.0" depart="0.00">
        <route edges="left2A2 A2B2 B2C2 C2D2 D2D3 D3D4 D4top3"/>
    </vehicle>
    <vehicle id="left2A2-E0bottom4.0" depart="0.00">
        <route edges="left2A2 A2B2 B2C2 C2D2 D2E2 E2E1 E1E0 E0bottom4"/>
    </vehicle>
    <vehicle id="left2A2-E0right0.0" depart="0.00">
        <route edges="left2A2 A2A1 A1A0 A0B0 B0C0 C0D0 D0E0 E0right0"/>
    </vehicle>
    <vehicle id="left2A2-E1right1.0" depart="0.00">
        <route edges="left2A2 A2B2 B2B1 B1C1 C1D1 D1E1 E1right1"/>
    </vehicle>
    <vehicle id="left2A2-E2right2.0" depart="0.00">
        <route edges="left2A2 A2B2 B2C2 C2D2 D2E2 E2right2"/>
    </vehicle>
    <vehicle id="left2A2-E3right3.0" depart="0.00">
        <route edges="left2A2 A2B2 B2B3 B3C3 C3D3 D3E3 E3right3"/>
    </vehicle>
    <vehicle id="left2A2-E4right4.0" depart="0.00">
        <route edges="left2A2 A2A3 A3A4 A4B4 B4C4 C4D4 D4E4 E4right4"/>
    </vehicle>
    <vehicle id="left2A2-E4top4.0" depart="0.00">
        <route edges="left2A2 A2B2 B2C2 C2D2 D2E2 E2E3 E3E4 E4top4"/>
    </vehicle>
    <vehicle id="left3A3-A0bottom0.0" depart="0.00">
        <route edges="left3A3 A3A2 A2A1 A1A0 A0bottom0"/>
    </vehicle>
    <vehicle id="left3A3-A4top0.0" depart="0.00">
        <route edges="left3A3 A3A4 A4top0"/>
    </vehicle>
    <vehicle id="left3A3-B0bottom1.0" depart="0.00">
        <route edges="left3A3 A3B3 B3B2 B2B1 B1B0 B0bottom1"/>
    </vehicle>
    <vehicle id="left3A3-B4top1.0" depart="0.00">
        <route edges="left3A3 A3B3 B3B4 B4top1"/>
    </vehicle>
    <vehicle id="left3A3-C0bottom2.0" depart="0.00">
        <route edges="left3A3 A3B3 B3C3 C3C2 C2C1 C1C0 C0bottom2"/>
    </vehicle>
    <vehicle id="left3A3-C4top2.0" depart="0.00">
        <route edges="left3A3 A3B3 B3C3 C3C4 C4top2"/>
    </vehicle>
    <vehicle id="left3A3-D0bottom3.0" depart="0.00">
        <route edges="left3A3 A3B3 B3C3 C3D3 D3D2 D2D1 D1D0 D0bottom3"/>
    </vehicle>
    <vehicle id="left3A3-D4top3.0" depart="0.00">
        <route edges="left3A3 A3B3 B3C3 C3D3 D3D4 D4top3"/>
    </vehicle>
    <vehicle id="left3A3-E0bottom4.0" depart="0.00">
        <route edges="left3A3 A3B3 B3C3 C3D3 D3E3 E3E2 E2E1 E1E0 E0bottom4"/>
    </vehicle>
    <vehicle id="left3A3-E0right0.0" depart="0.00">
        <route edges="left3A3 A3B3 B3C3 C3C2 C2C1 C1C0 C0D0 D0E0 E0right0"/>
    </vehicle>
    <vehicle id="left3A3-E1right1.0" depart="0.00">
        <route edges="left3A3 A3A2 A2A1 A1B1 B1C1 C1D1 D1E1 E1right1"/>
    </vehicle>
    <vehicle id="left3A3-E2right2.0" depart="0.00">
        <route edges="left3A3 A3B3 B3B2 B2C2 C2D2 D2E2 E2right2"/>
    </vehicle>
    <vehicle id="left3A3-E3right3.0" depart="0.00">
        <route edges="left3A3 A3B3 B3C3 C3D3 D3E3 E3right3"/>
    </vehicle>
    <vehicle id="left3A3-E4right4.0" depart="0.00">
        <route edges="left3A3 A3B3 B3B4 B4C4 C4D4 D4E4 E4right4"/>
    </vehicle>
    <vehicle id="left3A3-E4top4.0" depart="0.00">
        <route edges="left3A3 A3B3 B3C3 C3D3 D3E3 E3E4 E4top4"/>
    </vehicle>
    <vehicle id="left4A4-A0bottom0.0" depart="0.00">
        <route edges="left4A4 A4A3 A3A2 A2A1 A1A0 A0bottom0"/>
    </vehicle>
    <vehicle id="left4A4-A4top0.0" depart="0.00">
        <route edges="left4A4 A4top0"/>
    </vehicle>
    <vehicle id="left4A4-B0bottom1.0" depart="0.00">
        <route edges="left4A4 A4B4 B4B3 B3B2 B2B1 B1B0 B0bottom1"/>
    </vehicle>
    <vehicle id="left4A4-B4top1.0" depart="0.00">
        <route edges="left4A4 A4B4 B4top1"/>
    </vehicle>
    <vehicle id="left4A4-C0bottom2.0" depart="0.00">
        <route edges="left4A4 A4B4 B4C4 C4C3 C3C2 C2C1 C1C0 C0bottom2"/>
    </vehicle>
    <vehicle id="left4A4-C4top2.0" depart="0.00">
        <route edges="left4A4 A4B4 B4C4 C4top2"/>
    </vehicle>
    <vehicle id="left4A4-D0bottom3.0" depart="0.00">
        <route edges="left4A4 A4B4 B4C4 C4D4 D4D3 D3D2 D2D1 D1D0 D0bottom3"/>
    </vehicle>
    <vehicle id="left4A4-D4top3.0" depart="0.00">
        <route edges="left4A4 A4B4 B4C4 C4D4 D4top3"/>
    </vehicle>
    <vehicle id="left4A4-E0bottom4.0" depart="0.00">
        <route edges="left4A4 A4B4 B4C4 C4D4 D4E4 E4E3 E3E2 E2E1 E1E0 E0bottom4"/>
    </vehicle>
    <vehicle id="left4A4-E0right0.0" depart="0.00">
        <route edges="left4A4 A4B4 B4C4 C4C3 C3C2 C2C1 C1C0 C0D0 D0E0 E0right0"/>
    </vehicle>
    <vehicle id="left4A4-E1right1.0" depart="0.00">
        <route edges="left4A4 A4B4 B4C4 C4C3 C3C2 C2C1 C1D1 D1E1 E1right1"/>
    </vehicle>
    <vehicle id="left4A4-E2right2.0" depart="0.00">
        <route edges="left4A4 A4A3 A3A2 A2B2 B2C2 C2D2 D2E2 E2right2"/>
    </vehicle>
    <vehicle id="left4A4-E3right3.0" depart="0.00">
        <route edges="left4A4 A4B4 B4B3 B3C3 C3D3 D3E3 E3right3"/>
    </vehicle>
    <vehicle id="left4A4-E4right4.0" depart="0.00">
        <route edges="left4A4 A4B4 B4C4 C4D4 D4E4 E4right4"/>
    </vehicle>
    <vehicle id="left4A4-E4top4.0" depart="0.00">
        <route edges="left4A4 A4B4 B4C4 C4D4 D4E4 E4top4"/>
    </vehicle>
    <vehicle id="right0E0-A0bottom0.0" depart="0.00">
        <route edges="right0E0 E0D0 D0C0 C0B0 B0A0 A0bottom0"/>
    </vehicle>
    <vehicle id="right0E0-A0left0.0" depart="0.00">
        <route edges="right0E0 E0D0 D0C0 C0B0 B0A0 A0left0"/>
    </vehicle>
    <vehicle id="right0E0-A1left1.0" depart="0.00">
        <route edges="right0E0 E0D0 D0D1 D1C1 C1B1 B1A1 A1left1"/>
    </vehicle>
    <vehicle id="right0E0-A3left3.0" depart="0.00">
        <route edges="right0E0 E0D0 D0C0 C0C1 C1C2 C2C3 C3B3 B3A3 A3left3"/>
    </vehicle>
    <vehicle id="right0E0-A4left4.0" depart="0.00">
        <route edges="right0E0 E0D0 D0C0 C0C1 C1C2 C2C3 C3C4 C4B4 B4A4 A4left4"/>
    </vehicle>
    <vehicle id="right0E0-A4top0.0" depart="0.00">
        <route edges="right0E0 E0D0 D0C0 C0B0 B0A0 A0A1 A1A2 A2A3 A3A4 A4top0"/>
    </vehicle>
    <vehicle id="right0E0-B0bottom1.0" depart="0.00">
        <route edges="right0E0 E0D0 D0C0 C0B0 B0bottom1"/>
    </vehicle>
    <vehicle id="right0E0-B4top1.0" depart="0.00">
        <route edges="right0E0 E0D0 D0C0 C0B0 B0B1 B1B2 B2B3 B3B4 B4top1"/>
    </vehicle>
    <vehicle id="right0E0-C0bottom2.0" depart="0.00">
        <route edges="right0E0 E0D0 D0C0 C0bottom2"/>
    </vehicle>
    <vehicle id="right0E0-C4top2.0" depart="0.00">
        <route edges="right0E0 E0D0 D0C0 C0C1 C1C2 C2C3 C3C4 C4top2"/>
    </vehicle>
    <vehicle id="right0E0-D0bottom3.0" depart="0.00">
        <route edges="right0E0 E0D0 D0bottom3"/>
    </vehicle>
    <vehicle id="right0E0-D4top3.0" depart="0.00">
        <route edges="right0E0 E0D0 D0D1 D1D2 D2D3 D3D4 D4top3"/>
    </vehicle>
    <vehicle id="right0E0-E0bottom4.0" depart="0.00">
        <route edges="right0E0 E0bottom4"/>
    </vehicle>
    <vehicle id="right0E0-E4top4.0" depart="0.00">
        <route edges="right0E0 E0E1 E1E2 E2E3 E3E4 E4top4"/>
    </vehicle>
    <vehicle id="right1E1-A0bottom0.0" depart="0.00">
        <route edges="right1E1 E1D1 D1C1 C1B1 B1A1 A1A0 A0bottom0"/>
    </vehicle>
    <vehicle id="right1E1-A0left0.0" depart="0.00">
        <route edges="right1E1 E1D1 D1D0 D0C0 C0B0 B0A0 A0left0"/>
    </vehicle>
    <vehicle id="right1E1-A1left1.0" depart="0.00">
        <route edges="right1E1 E1D1 D1C1 C1B1 B1A1 A1left1"/>
    </vehicle>
    <vehicle id="right1E1-A2left2.0" depart="0.00">
        <route edges="right1E1 E1D1 D1D2 D2C2 C2B2 B2A2 A2left2"/>
    </vehicle>
    <vehicle id="right1E1-A3left3.0" depart="0.00">
        <route edges="right1E1 E1E2 E2E3 E3D3 D3C3 C3B3 B3A3 A3left3"/>
    </vehicle>
    <vehicle id="right1E1-A4left4.0" depart="0.00">
        <route edges="right1E1 E1D1 D1C1 C1C2 C2C3 C3C4 C4B4 B4A4 A4left4"/>
    </vehicle>
    <vehicle id="right1E1-A4top0.0" depart="0.00">
        <route edges="right1E1 E1D1 D1C1 C1B1 B1A1 A1A2 A2A3 A3A4 A4top0"/>
    </vehicle>
    <vehicle id="right1E1-B0bottom1.0" depart="0.00">
        <route edges="right1E1 E1D1 D1C1 C1B1 B1B0 B0bottom1"/>
    </vehicle>
    <vehicle id="right1E1-B4top1.0" depart="0.00">
        <route edges="right1E1 E1D1 D1C1 C1B1 B1B2 B2B3 B3B4 B4top1"/>
    </vehicle>
    <vehicle id="right1E1-C0bottom2.0" depart="0.00">
        <route edges="right1E1 E1D1 D1C1 C1C0 C0bottom2"/>
    </vehicle>
    <vehicle id="right1E1-C4top2.0" depart="0.00">
        <route edges="right1E1 E1D1 D1C1 C1C2 C2C3 C3C4 C4top2"/>
    </vehicle>
    <vehicle id="right1E1-D0bottom3.0" depart="0.00">
        <route edges="right1E1 E1D1 D1D0 D0bottom3"/>
    </vehicle>
    <vehicle id="right1E1-D4top3.0" depart="0.00">
        <route edges="right1E1 E1D1 D1D2 D2D3 D3D4 D4top3"/>
    </vehicle>
    <vehicle id="right1E1-E0bottom4.0" depart="0.00">
        <route edges="right1E1 E1E0 E0bottom4"/>
    </vehicle>
    <vehicle id="right1E1-E4top4.0" depart="0.00">
        <route edges="right1E1 E1E2 E2E3 E3E4 E4top4"/>
    </vehicle>
    <vehicle id="right2E2-A0bottom0.0" depart="0.00">
        <route edges="right2E2 E2D2 D2C2 C2B2 B2A2 A2A1 A1A0 A0bottom0"/>
    </vehicle>
    <vehicle id="right2E2-A0left0.0" depart="0.00">
        <route edges="right2E2 E2E1 E1E0 E0D0 D0C0 C0B0 B0A0 A0left0"/>
    </vehicle>
    <vehicle id="right2E2-A1left1.0" depart="0.00">
        <route edges="right2E2 E2D2 D2D1 D1C1 C1B1 B1A1 A1left1"/>
    </vehicle>
    <vehicle id="right2E2-A2left2.0" depart="0.00">
        <route edges="right2E2 E2D2 D2C2 C2B2 B2A2 A2left2"/>
    </vehicle>
    <vehicle id="right2E2-A3left3.0" depart="0.00">
        <route edges="right2E2 E2D2 D2D3 D3C3 C3B3 B3A3 A3left3"/>
    </vehicle>
    <vehicle id="right2E2-A4left4.0" depart="0.00">
        <route edges="right2E2 E2E3 E3E4 E4D4 D4C4 C4B4 B4A4 A4left4"/>
    </vehicle>
    <vehicle id="right2E2-A4top0.0" depart="0.00">
        <route edges="right2E2 E2D2 D2C2 C2B2 B2A2 A2A3 A3A4 A4top0"/>
    </vehicle>
    <vehicle id="right2E2-B0bottom1.0" depart="0.00">
        <route edges="right2E2 E2D2 D2C2 C2B2 B2B1 B1B0 B0bottom1"/>
    </vehicle>
    <vehicle id="right2E2-B4top1.0" depart="0.00">
        <route edges="right2E2 E2D2 D2C2 C2B2 B2B3 B3B4 B4top1"/>
    </vehicle>
    <vehicle id="right2E2-C0bottom2.0" depart="0.00">
        <route edges="right2E2 E2D2 D2C2 C2C1 C1C0 C0bottom2"/>
    </vehicle>
    <vehicle id="right2E2-C4top2.0" depart="0.00">
        <route edges="right2E2 E2D2 D2C2 C2C3 C3C4 C4top2"/>
    </vehicle>
    <vehicle id="right2E2-D4top3.0" depart="0.00">
        <route edges="right2E2 E2D2 D2D3 D3D4 D4top3"/>
    </vehicle>
    <vehicle id="right2E2-E0bottom4.0" depart="0.00">
        <route edges="right2E2 E2E1 E1E0 E0bottom4"/>
    </vehicle>
    <vehicle id="right2E2-E4top4.0" depart="0.00">
        <route edges="right2E2 E2E3 E3E4 E4top4"/>
    </vehicle>
    <vehicle id="right3E3-A0left0.0" depart="0.00">
        <route edges="right3E3 E3D3 D3C3 C3C2 C2C1 C1C0 C0B0 B0A0 A0left0"/>
    </vehicle>
    <vehicle id="right3E3-A1left1.0" depart="0.00">
        <route edges="right3E3 E3E2 E2E1 E1D1 D1C1 C1B1 B1A1 A1left1"/>
    </vehicle>
    <vehicle id="right3E3-A2left2.0" depart="0.00">
        <route edges="right3E3 E3D3 D3D2 D2C2 C2B2 B2A2 A2left2"/>
    </vehicle>
    <vehicle id="right3E3-A3left3.0" depart="0.00">
        <route edges="right3E3 E3D3 D3C3 C3B3 B3A3 A3left3"/>
    </vehicle>
    <vehicle id="right3E3-A4left4.0" depart="0.00">
        <route edges="right3E3 E3D3 D3D4 D4C4 C4B4 B4A4 A4left4"/>
    </vehicle>
    <vehicle id="right3E3-A4top0.0" depart="0.00">
        <route edges="right3E3 E3D3 D3C3 C3B3 B3A3 A3A4 A4top0"/>
    </vehicle>
    <vehicle id="right3E3-B0bottom1.0" depart="0.00">
        <route edges="right3E3 E3D3 D3C3 C3B3 B3B2 B2B1 B1B0 B0bottom1"/>
    </vehicle>
    <vehicle id="right3E3-B4top1.0" depart="0.00">
        <route edges="right3E3 E3D3 D3C3 C3B3 B3B4 B4top1"/>
    </vehicle>
    <vehicle id="right3E3-C0bottom2.0" depart="0.00">
        <route edges="right3E3 E3D3 D3C3 C3C2 C2C1 C1C0 C0bottom2"/>
    </vehicle>
    <vehicle id="right3E3-C4top2.0" depart="0.00">
        <route edges="right3E3 E3D3 D3C3 C3C4 C4top2"/>
    </vehicle>
    <vehicle id="right3E3-D0bottom3.0" depart="0.00">
        <route edges="right3E3 E3D3 D3D2 D2D1 D1D0 D0bottom3"/>
    </vehicle>
    <vehicle id="right3E3-D4top3.0" depart="0.00">
        <route edges="right3E3 E3D3 D3D4 D4top3"/>
    </vehicle>
    <vehicle id="right3E3-E0bottom4.0" depart="0.00">
        <route edges="right3E3 E3E2 E2E1 E1E0 E0bottom4"/>
    </vehicle>
    <vehicle id="right3E3-E4top4.0" depart="0.00">
        <route edges="right3E3 E3E4 E4top4"/>
    </vehicle>
    <vehicle id="right4E4-A0bottom0.0" depart="0.00">
        <route edges="right4E4 E4D4 D4C4 C4B4 B4A4 A4A3 A3A2 A2A1 A1A0 A0bottom0"/>
    </vehicle>
    <vehicle id="right4E4-A0left0.0" depart="0.00">
        <route edges="right4E4 E4D4 D4C4 C4C3 C3C2 C2C1 C1C0 C0B0 B0A0 A0left0"/>
    </vehicle>
    <vehicle id="right4E4-A1left1.0" depart="0.00">
        <route edges="right4E4 E4D4 D4C4 C4C3 C3C2 C2C1 C1B1 B1A1 A1left1"/>
    </vehicle>
    <vehicle id="right4E4-A2left2.0" depart="0.00">
        <route edges="right4E4 E4E3 E3E2 E2D2 D2C2 C2B2 B2A2 A2left2"/>
    </vehicle>
    <vehicle id="right4E4-A3left3.0" depart="0.00">
        <route edges="right4E4 E4D4 D4D3 D3C3 C3B3 B3A3 A3left3"/>
    </vehicle>
    <vehicle id="right4E4-A4left4.0" depart="0.00">
        <route edges="right4E4 E4D4 D4C4 C4B4 B4A4 A4left4"/>
    </vehicle>
    <vehicle id="right4E4-A4top0.0" depart="0.00">
        <route edges="right4E4 E4D4 D4C4 C4B4 B4A4 A4top0"/>
    </vehicle>
    <vehicle id="right4E4-B0bottom1.0" depart="0.00">
        <route edges="right4E4 E4D4 D4C4 C4B4 B4B3 B3B2 B2B1 B1B0 B0bottom1"/>
    </vehicle>
    <vehicle id="right4E4-B4top1.0" depart="0.00">
        <route edges="right4E4 E4D4 D4C4 C4B4 B4top1"/>
    </vehicle>
    <vehicle id="right4E4-C0bottom2.0" depart="0.00">
        <route edges="right4E4 E4D4 D4C4 C4C3 C3C2 C2C1 C1C0 C0bottom2"/>
    </vehicle>
    <vehicle id="right4E4-C4top2.0" depart="0.00">
        <route edges="right4E4 E4D4 D4C4 C4top2"/>
    </vehicle>
    <vehicle id="right4E4-D0bottom3.0" depart="0.00">
        <route edges="right4E4 E4D4 D4D3 D3D2 D2D1 D1D0 D0bottom3"/>
    </vehicle>
    <vehicle id="right4E4-D4top3.0" depart="0.00">
        <route edges="right4E4 E4D4 D4top3"/>
    </vehicle>
    <vehicle id="right4E4-E0bottom4.0" depart="0.00">
        <route edges="right4E4 E4E3 E3E2 E2E1 E1E0 E0bottom4"/>
    </vehicle>
    <vehicle id="right4E4-E4top4.0" depart="0.00">
        <route edges="right4E4 E4top4"/>
    </vehicle>
    <vehicle id="top0A4-A0bottom0.0" depart="0.00">
        <route edges="top0A4 A4A3 A3A2 A2A1 A1A0 A0bottom0"/>
    </vehicle>
    <vehicle id="top0A4-A0left0.0" depart="0.00">
        <route edges="top0A4 A4A3 A3A2 A2A1 A1A0 A0left0"/>
    </vehicle>
    <vehicle id="top0A4-A2left2.0" depart="0.00">
        <route edges="top0A4 A4A3 A3A2 A2left2"/>
    </vehicle>
    <vehicle id="top0A4-A3left3.0" depart="0.00">
        <route edges="top0A4 A4A3 A3left3"/>
    </vehicle>
    <vehicle id="top0A4-A4left4.0" depart="0.00">
        <route edges="top0A4 A4left4"/>
    </vehicle>
    <vehicle id="top0A4-B0bottom1.0" depart="0.00">