<?xml version="1.0" ?>
<routes xmlns:xsi="http://www.w3.org/2001/XMLSchema-instance" xsi:noNamespaceSchemaLocation="http://sumo.dlr.de/xsd/routes_file.xsd">
	<flow begin="0" end="3600" from="top0A4" id="top0A4-A0bottom0" number="15" to="A0bottom0"/>
	<flow begin="0" end="3600" from="top0A4" id="top0A4-B0bottom1" number="14" to="B0bottom1"/>
	<flow begin="0" end="3600" from="top0A4" id="top0A4-C0bottom2" number="7" to="C0bottom2"/>
	<flow begin="0" end="3600" from="top0A4" id="top0A4-D0bottom3" number="9" to="D0bottom3"/>
	<flow begin="0" end="3600" from="top0A4" id="top0A4-E0bottom4" number="16" to="E0bottom4"/>
	<flow begin="0" end="3600" from="top0A4" id="top0A4-A0left0" number="13" to="A0left0"/>
	<flow begin="0" end="3600" from="top0A4" id="top0A4-A1left1" number="0" to="A1left1"/>
	<flow begin="0" end="3600" from="top0A4" id="top0A4-A2left2" number="1" to="A2left2"/>
	<flow begin="0" end="3600" from="top0A4" id="top0A4-A3left3" number="7" to="A3left3"/>
	<flow begin="0" end="3600" from="top0A4" id="top0A4-A4left4" number="8" to="A4left4"/>
	<flow begin="0" end="3600" from="top0A4" id="top0A4-E0right0" number="5" to="E0right0"/>
	<flow begin="0" end="3600" from="top0A4" id="top0A4-E1right1" number="17" to="E1right1"/>
	<flow begin="0" end="3600" from="top0A4" id="top0A4-E2right2" number="18" to="E2right2"/>
	<flow begin="0" end="3600" from="top0A4" id="top0A4-E3right3" number="4" to="E3right3"/>
	<flow begin="0" end="3600" from="top0A4" id="top0A4-E4right4" number="10" to="E4right4"/>
	<flow begin="0" end="3600" from="top1B4" id="top1B4-A0bottom0" number="15" to="A0bottom0"/>
	<flow begin="0" end="3600" from="top1B4" id="top1B4-B0bottom1" number="7" to="B0bottom1"/>
	<flow begin="0" end="3600" from="top1B4" id="top1B4-C0bottom2" number="15" to="C0bottom2"/>
	<flow begin="0" end="3600" from="top1B4" id="top1B4-D0bottom3" number="18" to="D0bottom3"/>
	<flow begin="0" end="3600" from="top1B4" id="top1B4-E0bottom4" number="7" to="E0bottom4"/>
	<flow begin="0" end="3600" from="top1B4" id="top1B4-A0left0" number="3" to="A0left0"/>
	<flow begin="0" end="3600" from="top1B4" id="top1B4-A1left1" number="7" to="A1left1"/>
	<flow begin="0" end="3600" from="top1B4" id="top1B4-A2left2" number="8" to="A2left2"/>
	<flow begin="0" end="3600" from="top1B4" id="top1B4-A3left3" number="13" to="A3left3"/>
	<flow begin="0" end="3600" from="top1B4" id="top1B4-A4left4" number="4" to="A4left4"/>
	<flow begin="0" end="3600" from="top1B4" id="top1B4-E0right0" number="12" to="E0right0"/>
	<flow begin="0" end="3600" from="top1B4" id="top1B4-E1right1" number="5" to="E1right1"/>
	<flow begin="0" end="3600" from="top1B4" id="top1B4-E2right2" number="4" to="E2right2"/>
	<flow begin="0" end="3600" from="top1B4" id="top1B4-E3right3" number="17" to="E3right3"/>
	<flow begin="0" end="3600" from="top1B4" id="top1B4-E4right4" number="13" to="E4right4"/>
	<flow begin="0" end="3600" from="top2C4" id="top2C4-A0bottom0" number="14" to="A0bottom0"/>
	<flow begin="0" end="3600" from="top2C4" id="top2C4-B0bottom1" number="0" to="B0bottom1"/>
	<flow begin="0" end="3600" from="top2C4" id="top2C4-C0bottom2" number="9" to="C0bottom2"/>
	<flow begin="0" end="3600" from="top2C4" id="top2C4-D0bottom3" number="13" to="D0bottom3"/>
	<flow begin="0" end="3600" from="top2C4" id="top2C4-E0bottom4" number="16" to="E0bottom4"/>
	<flow begin="0" end="3600" from="top2C4" id="top2C4-A0left0" number="15" to="A0left0"/>
	<flow begin="0" end="3600" from="top2C4" id="top2C4-A1left1" number="1" to="A1left1"/>
	<flow begin="0" end="3600" from="top2C4" id="top2C4-A2left2" number="5" to="A2left2"/>
	<flow begin="0" end="3600" from="top2C4" id="top2C4-A3left3" number="8" to="A3left3"/>
	<flow begin="0" end="3600" from="top2C4" id="top2C4-A4left4" number="1" to="A4left4"/>
	<flow begin="0" end="3600" from="top2C4" id="top2C4-E0right0" number="12" to="E0right0"/>
	<flow begin="0" end="3600" from="top2C4" id="top2C4-E1right1" number="2" to="E1right1"/>
	<flow begin="0" end="3600" from="top2C4" id="top2C4-E2right2" number="8" to="E2right2"/>
	<flow begin="0" end="3600" from="top2C4" id="top2C4-E3right3" number="0" to="E3right3"/>
	<flow begin="0" end="3600" from="top2C4" id="top2C4-E4right4" number="18" to="E4right4"/>
	<flow begin="0" end="3600" from="top3D4" id="top3D4-A0bottom0" number="0" to="A0bottom0"/>
	<flow begin="0" end="3600" from="top3D4" id="top3D4-B0bottom1" number="2" to="B0bottom1"/>
	<flow begin="0" end="3600" from="top3D4" id="top3D4-C0bottom2" number="10" to="C0bottom2"/>
	<flow begin="0" end="3600" from="top3D4" id="top3D4-D0bottom3" number="17" to="D0bottom3"/>
	<flow begin="0" end="3600" from="top3D4" id="top3D4-E0bottom4" number="14" to="E0bottom4"/>
	<flow begin="0" end="3600" from="top3D4" id="top3D4-A0left0" number="4" to="A0left0"/>
	<flow begin="0" end="3600" from="top3D4" id="top3D4-A1left1" number="12" to="A1left1"/>
	<flow begin="0" end="3600" from="top3D4" id="top3D4-A2left2" number="1" to="A2left2"/>
	<flow begin="0" end="3600" from="top3D4" id="top3D4-A3left3" number="16" to="A3left3"/>
	<flow begin="0" end="3600" from="top3D4" id="top3D4-A4left4" number="17" to="A4left4"/>
	<flow begin="0" end="3600" from="top3D4" id="top3D4-E0right0" number="4" to="E0right0"/>
	<flow begin="0" end="3600" from="top3D4" id="top3D4-E1right1" number="0" to="E1right1"/>
	<flow begin="0" end="3600" from="top3D4" id="top3D4-E2right2" number="7" to="E2right2"/>
	<flow begin="0" end="3600" from="top3D4" id="top3D4-E3right3" number="18" to="E3right3"/>
	<flow begin="0" end="3600" from="top3D4" id="top3D4-E4right4" number="14" to="E4right4"/>
	<flow begin="0" end="3600" from="top4E4" id="top4E4-A0bottom0" number="19" to="A0bottom0"/>
	<flow begin="0" end="3600" from="top4E4" id="top4E4-B0bottom1" number="2" to="B0bottom1"/>
	<flow begin="0" end="3600" from="top4E4" id="top4E4-C0bottom2" number="15" to="C0bottom2"/>
	<flow begin="0" end="3600" from="top4E4" id="top4E4-D0bottom3" number="1" to="D0bottom3"/>
	<flow begin="0" end="3600" from="top4E4" id="top4E4-E0bottom4" number="0" to="E0bottom4"/>
	<flow begin="0" end="3600" from="top4E4" id="top4E4-A0left0" number="11" to="A0left0"/>
	<flow begin="0" end="3600" from="top4E4" id="top4E4-A1left1" number="5" to="A1left1"/>
	<flow begin="0" end="3600" from="top4E4" id="top4E4-A2left2" number="15" to="A2left2"/>
	<flow begin="0" end="3600" from="top4E4" id="top4E4-A3left3" number="13" to="A3left3"/>
	<flow begin="0" end="3600" from="top4E4" id="top4E4-A4left4" number="1" to="A4left4"/>
	<flow begin="0" end="3600" from="top4E4" id="top4E4-E0right0" number="12" to="E0right0"/>
	<flow begin="0" end="3600" from="top4E4" id="top4E4-E1right1" number="18" to="E1right1"/>
	<flow begin="0" end="3600" from="top4E4" id="top4E4-E2right2" number="15" to="E2right2"/>
	<flow begin="0" end="3600" from="top4E4" id="top4E4-E3right3" number="5" to="E3right3"/>
	<flow begin="0" end="3600" from="top4E4" id="top4E4-E4right4" number="9" to="E4right4"/>
	<flow begin="0" end="3600" from="bottom0A0" id="bottom0A0-A4top0" number="5" to="A4top0"/>
	<flow begin="0" end="3600" from="bottom0A0" id="bottom0A0-B4top1" number="18" to="B4top1"/>
	<flow begin="0" end="3600" from="bottom0A0" id="bottom0A0-C4top2" number="2" to="C4top2"/>
	<flow begin="0" end="3600" from="bottom0A0" id="bottom0A0-D4top3" number="10" to="D4top3"/>
	<flow begin="0" end="3600" from="bottom0A0" id="bottom0A0-E4top4" number="8" to="E4top4"/>
	<flow begin="0" end="3600" from="bottom0A0" id="bottom0A0-A0left0" number="0" to="A0left0"/>
	<flow begin="0" end="3600" from="bottom0A0" id="bottom0A0-A1left1" number="0" to="A1left1"/>
	<flow begin="0" end="3600" from="bottom0A0" id="bottom0A0-A2left2" number="1" to="A2left2"/>
	<flow begin="0" end="3600" from="bottom0A0" id="bottom0A0-A3left3" number="10" to="A3left3"/>
	<flow begin="0" end="3600" from="bottom0A0" id="bottom0A0-A4left4" number="19" to="A4left4"/>
	<flow begin="0" end="3600" from="bottom0A0" id="bottom0A0-E0right0" number="8" to="E0right0"/>
	<flow begin="0" end="3600" from="bottom0A0" id="bottom0A0-E1right1" number="18" to="E1right1"/>
	<flow begin="0" end="3600" from="bottom0A0" id="bottom0A0-E2right2" number="14" to="E2right2"/>
	<flow begin="0" end="3600" from="bottom0A0" id="bottom0A0-E3right3" number="16" to="E3right3"/>
	<flow begin="0" end="3600" from="bottom0A0" id="bottom0A0-E4right4" number="15" to="E4right4"/>
	<flow begin="0" end="3600" from="bottom1B0" id="bottom1B0-A4top0" number="13" to="A4top0"/>
	<flow begin="0" end="3600" from="bottom1B0" id="bottom1B0-B4top1" number="6" to="B4top1"/>
	<flow begin="0" end="3600" from="bottom1B0" id="bottom1B0-C4top2" number="8" to="C4top2"/>
	<flow begin="0" end="3600" from="bottom1B0" id="bottom1B0-D4top3" number="8" to="D4top3"/>
	<flow begin="0" end="3600" from="bottom1B0" id="bottom1B0-E4top4" number="4" to="E4top4"/>
	<flow begin="0" end="3600" from="bottom1B0" id="bottom1B0-A0left0" number="9" to="A0left0"/>
	<flow begin="0" end="3600" from="bottom1B0" id="bottom1B0-A1left1" number="3" to="A1left1"/>
	<flow begin="0" end="3600" from="bottom1B0" id="bottom1B0-A2left2" number="19" to="A2left2"/>
	<flow begin="0" end="3600" from="bottom1B0" id="bottom1B0-A3left3" number="8" to="A3left3"/>
	<flow begin="0" end="3600" from="bottom1B0" id="bottom1B0-A4left4" number="9" to="A4left4"/>
	<flow begin="0" end="3600" from="bottom1B0" id="bottom1B0-E0right0" number="1" to="E0right0"/>
	<flow begin="0" end="3600" from="bottom1B0" id="bottom1B0-E1right1" number="12" to="E1right1"/>
	<flow begin="0" end="3600" from="bottom1B0" id="bottom1B0-E2right2" number="10" to="E2right2"/>
	<flow begin="0" end="3600" from="bottom1B0" id="bottom1B0-E3right3" number="18" to="E3right3"/>
	<flow begin="0" end="3600" from="bottom1B0" id="bottom1B0-E4right4" number="19" to="E4right4"/>
	<flow begin="0" end="3600" from="bottom2C0" id="bottom2C0-A4top0" number="11" to="A4top0"/>
	<flow begin="0" end="3600" from="bottom2C0" id="bottom2C0-B4top1" number="0" to="B4top1"/>
	<flow begin="0" end="3600" from="bottom2C0" id="bottom2C0-C4top2" number="7" to="C4top2"/>
	<flow begin="0" end="3600" from="bottom2C0" id="bottom2C0-D4top3" number="4" to="D4top3"/>
	<flow begin="0" end="3600" from="bottom2C0" id="bottom2C0-E4top4" number="4" to="E4top4"/>
	<flow begin="0" end="3600" from="bottom2C0" id="bottom2C0-A0left0" number="6" to="A0left0"/>
	<flow begin="0" end="3600" from="bottom2C0" id="bottom2C0-A1left1" number="12" to="A1left1"/>
	<flow begin="0" end="3600" from="bottom2C0" id="bottom2C0-A2left2" number="6" to="A2left2"/>
	<flow begin="0" end="3600" from="bottom2C0" id="bottom2C0-A3left3" number="9" to="A3left3"/>
	<flow begin="0" end="3600" from="bottom2C0" id="bottom2C0-A4left4" number="3" to="A4left4"/>
	<flow begin="0" end="3600" from="bottom2C0" id="bottom2C0-E0right0" number="0" to="E0right0"/>
	<flow begin="0" end="3600" from="bottom2C0" id="bottom2C0-E1right1" number="1" to="E1right1"/>
	<flow begin="0" end="3600" from="bottom2C0" id="bottom2C0-E2right2" number="4" to="E2right2"/>
	<flow begin="0" end="3600" from="bottom2C0" id="bottom2C0-E3right3" number="13" to="E3right3"/>
	<flow begin="0" end="3600" from="bottom2C0" id="bottom2C0-E4right4" number="16" to="E4right4"/>
	<flow begin="0" end="3600" from="bottom3D0" id="bottom3D0-A4top0" number="14" to="A4top0"/>
	<flow begin="0" end="3600" from="bottom3D0" id="bottom3D0-B4top1" number="1" to="B4top1"/>
	<flow begin="0" end="3600" from="bottom3D0" id="bottom3D0-C4top2" number="14" to="C4top2"/>
	<flow begin="0" end="3600" from="bottom3D0" id="bottom3D0-D4top3" number="17" to="D4top3"/>
	<flow begin="0" end="3600" from="bottom3D0" id="bottom3D0-E4top4" number="3" to="E4top4"/>
	<flow begin="0" end="3600" from="bottom3D0" id="bottom3D0-A0left0" number="6" to="A0left0"/>
	<flow begin="0" end="3600" from="bottom3D0" id="bottom3D0-A1left1" number="3" to="A1left1"/>
	<flow begin="0" end="3600" from="bottom3D0" id="bottom3D0-A2left2" number="13" to="A2left2"/>
	<flow begin="0" end="3600" from="bottom3D0" id="bottom3D0-A3left3" number="10" to="A3left3"/>
	<flow begin="0" end="3600" from="bottom3D0" id="bottom3D0-A4left4" number="6" to="A4left4"/>
	<flow begin="0" end="3600" from="bottom3D0" id="bottom3D0-E0right0" number="8" to="E0right0"/>
	<flow begin="0" end="3600" from="bottom3D0" id="bottom3D0-E1right1" number="19" to="E1right1"/>
	<flow begin="0" end="3600" from="bottom3D0" id="bottom3D0-E2right2" number="8" to="E2right2"/>
	<flow begin="0" end="3600" from="bottom3D0" id="bottom3D0-E3right3" number="6" to="E3right3"/>
	<flow begin="0" end="3600" from="bottom3D0" id="bottom3D0-E4right4" number="15" to="E4right4"/>
	<flow begin="0" end="3600" from="bottom4E0" id="bottom4E0-A4top0" number="12" to="A4top0"/>
	<flow begin="0" end="3600" from="bottom4E0" id="bottom4E0-B4top1" number="14" to="B4top1"/>
	<flow begin="0" end="3600" from="bottom4E0" id="bottom4E0-C4top2" number="18" to="C4top2"/>
	<flow begin="0" end="3600" from="bottom4E0" id="bottom4E0-D4top3" number="5" to="D4top3"/>
	<flow begin="0" end="3600" from="bottom4E0" id="bottom4E0-E4top4" number="17" to="E4top4"/>
	<flow begin="0" end="3600" from="bottom4E0" id="bottom4E0-A0left0" number="0" to="A0left0"/>
	<flow begin="0" end="3600" from="bottom4E0" id="bottom4E0-A1left1" number="5" to="A1left1"/>
	<flow begin="0" end="3600" from="bottom4E0" id="bottom4E0-A2left2" number="11" to="A2left2"/>
	<flow begin="0" end="3600" from="bottom4E0" id="bottom4E0-A3left3" number="10" to="A3left3"/>
	<flow begin="0" end="3600" from="bottom4E0" id="bottom4E0-A4left4" number="11" to="A4left4"/>
	<flow begin="0" end="3600" from="bottom4E0" id="bottom4E0-E0right0" number="13" to="E0right0"/>
	<flow begin="0" end="3600" from="bottom4E0" id="bottom4E0-E1right1" number="18" to="E1right1"/>
	<flow begin="0" end="3600" from="bottom4E0" id="bottom4E0-E2right2" number="8" to="E2right2"/>
	<flow begin="0" end="3600" from="bottom4E0" id="bottom4E0-E3right3" number="11" to="E3right3"/>
	<flow begin="0" end="3600" from="bottom4E0" id="bottom4E0-E4right4" number="18" to="E4right4"/>
	<flow begin="0" end="3600" from="left0A0" id="left0A0-A4top0" number="15" to="A4top0"/>
	<flow begin="0" end="3600" from="left0A0" id="left0A0-B4top1" number="12" to="B4top1"/>
	<flow begin="0" end="3600" from="left0A0" id="left0A0-C4top2" number="11" to="C4top2"/>
	<flow begin="0" end="3600" from="left0A0" id="left0A0-D4top3" number="13" to="D4top3"/>
	<flow begin="0" end="3600" from="left0A0" id="left0A0-E4top4" number="15" to="E4top4"/>
	<flow begin="0" end="3600" from="left0A0" id="left0A0-A0bottom0" number="12" to="A0bottom0"/>
	<flow begin="0" end="3600" from="left0A0" id="left0A0-B0bottom1" number="4" to="B0bottom1"/>
	<flow begin="0" end="3600" from="left0A0" id="left0A0-C0bottom2" number="5" to="C0bottom2"/>
	<flow begin="0" end="3600" from="left0A0" id="left0A0-D0bottom3" number="8" to="D0bottom3"/>
	<flow begin="0" end="3600" from="left0A0" id="left0A0-E0bottom4" number="1" to="E0bottom4"/>
	<flow begin="0" end="3600" from="left0A0" id="left0A0-E0right0" number="16" to="E0right0"/>
	<flow begin="0" end="3600" from="left0A0" id="left0A0-E1right1" number="16" to="E1right1"/>
	<flow begin="0" end="3600" from="left0A0" id="left0A0-E2right2" number="1" to="E2right2"/>
	<flow begin="0" end="3600" from="left0A0" id="left0A0-E3right3" number="18" to="E3right3"/>
	<flow begin="0" end="3600" from="left0A0" id="left0A0-E4right4" number="16" to="E4right4"/>
	<flow begin="0" end="3600" from="left1A1" id="left1A1-A4top0" number="11" to="A4top0"/>
	<flow begin="0" end="3600" from="left1A1" id="left1A1-B4top1" number="16" to="B4top1"/>
	<flow begin="0" end="3600" from="left1A1" id="left1A1-C4top2" number="13" to="C4top2"/>
	<flow begin="0" end="3600" from="left1A1" id="left1A1-D4top3" number="17" to="D4top3"/>
	<flow begin="0" end="3600" from="left1A1" id="left1A1-E4top4" number="9" to="E4top4"/>
	<flow begin="0" end="3600" from="left1A1" id="left1A1-A0bottom0" number="5" to="A0bottom0"/>
	<flow begin="0" end="3600" from="left1A1" id="left1A1-B0bottom1" number="2" to="B0bottom1"/>
	<flow begin="0" end="3600" from="left1A1" id="left1A1-C0bottom2" number="0" to="C0bottom2"/>
	<flow begin="0" end="3600" from="left1A1" id="left1A1-D0bottom3" number="3" to="D0bottom3"/>
	<flow begin="0" end="3600" from="left1A1" id="left1A1-E0bottom4" number="14" to="E0bottom4"/>
	<flow begin="0" end="3600" from="left1A1" id="left1A1-E0right0" number="8" to="E0right0"/>
	<flow begin="0" end="3600" from="left1A1" id="left1A1-E1right1" number="8" to="E1right1"/>
	<flow begin="0" end="3600" from="left1A1" id="left1A1-E2right2" number="2" to="E2right2"/>
	<flow begin="0" end="3600" from="left1A1" id="left1A1-E3right3" number="1" to="E3right3"/>
	<flow begin="0" end="3600" from="left1A1" id="left1A1-E4right4" number="1" to="E4right4"/>
	<flow begin="0" end="3600" from="left2A2" id="left2A2-A4top0" number="8" to="A4top0"/>
	<flow begin="0" end="3600" from="left2A2" id="left2A2-B4top1" number="7" to="B4top1"/>
	<flow begin="0" end="3600" from="left2A2" id="left2A2-C4top2" number="16" to="C4top2"/>
	<flow begin="0" end="3600" from="left2A2" id="left2A2-D4top3" number="13" to="D4top3"/>
	<flow begin="0" end="3600" from="left2A2" id="left2A2-E4top4" number="5" to="E4top4"/>
	<flow begin="0" end="3600" from="left2A2" id="left2A2-A0bottom0" number="12" to="A0bottom0"/>
	<flow begin="0" end="3600" from="left2A2" id="left2A2-B0bottom1" number="14" to="B0bottom1"/>
	<flow begin="0" end="3600" from="left2A2" id="left2A2-C0bottom2" number="9" to="C0bottom2"/>
	<flow begin="0" end="3600" from="left2A2" id="left2A2-D0bottom3" number="1" to="D0bottom3"/>
	<flow begin="0" end="3600" from="left2A2" id="left2A2-E0bottom4" number="15" to="E0bottom4"/>
	<flow begin="0" end="3600" from="left2A2" id="left2A2-E0right0" number="5" to="E0right0"/>
	<flow begin="0" end="3600" from="left2A2" id="left2A2-E1right1" number="9" to="E1right1"/>
	<flow begin="0" end="3600" from="left2A2" id="left2A2-E2right2" number="1" to="E2right2"/>
	<flow begin="0" end="3600" from="left2A2" id="left2A2-E3right3" number="4" to="E3right3"/>
	<flow begin="0" end="3600" from="left2A2" id="left2A2-E4right4" number="12" to="E4right4"/>
	<flow begin="0" end="3600" from="left3A3" id="left3A3-A4top0" number="8" to="A4top0"/>
	<flow begin="0" end="3600" from="left3A3" id="left3A3-B4top1" number="13" to="B4top1"/>
	<flow begin="0" end="3600" from="left3A3" id="left3A3-C4top2" number="16" to="C4top2"/>
	<flow begin="0" end="3600" from="left3A3" id="left3A3-D4top3" number="16" to="D4top3"/>
	<flow begin="0" end="3600" from="left3A3" id="left3A3-E4top4" number="7" to="E4top4"/>
	<flow begin="0" end="3600" from="left3A3" id="left3A3-A0bottom0" number="3" to="A0bottom0"/>
	<flow begin="0" end="3600" from="left3A3" id="left3A3-B0bottom1" number="8" to="B0bottom1"/>
	<flow begin="0" end="3600" from="left3A3" id="left3A3-C0bottom2" number="10" to="C0bottom2"/>
	<flow begin="0" end="3600" from="left3A3" id="left3A3-D0bottom3" number="3" to="D0bottom3"/>
	<flow begin="0" end="3600" from="left3A3" id="left3A3-E0bottom4" number="12" to="E0bottom4"/>
	<flow begin="0" end="3600" from="left3A3" id="left3A3-E0right0" number="14" to="E0right0"/>
	<flow begin="0" end="3600" from="left3A3" id="left3A3-E1right1" number="17" to="E1right1"/>
	<flow begin="0" end="3600" from="left3A3" id="left3A3-E2right2" number="19" to="E2right2"/>
	<flow begin="0" end="3600" from="left3A3" id="left3A3-E3right3" number="7" to="E3right3"/>
	<flow begin="0" end="3600" from="left3A3" id="left3A3-E4right4" number="2" to="E4right4"/>
	<flow begin="0" end="3600" from="left4A4" id="left4A4-A4top0" number="17" to="A4top0"/>
	<flow begin="0" end="3600" from="left4A4" id="left4A4-B4top1" number="10" to="B4top1"/>
	<flow begin="0" end="3600" from="left4A4" id="left4A4-C4top2" number="11" to="C4top2"/>
	<flow begin="0" end="3600" from="left4A4" id="left4A4-D4top3" number="8" to="D4top3"/>
	<flow begin="0" end="3600" from="left4A4" id="left4A4-E4top4" number="17" to="E4top4"/>
	<flow begin="0" end="3600" from="left4A4" id="left4A4-A0bottom0" number="5" to="A0bottom0"/>
	<flow begin="0" end="3600" from="left4A4" id="left4A4-B0bottom1" number="16" to="B0bottom1"/>
	<flow begin="0" end="3600" from="left4A4" id="left4A4-C0bottom2" number="6" to="C0bottom2"/>
	<flow begin="0" end="3600" from="left4A4" id="left4A4-D0bottom3" number="13" to="D0bottom3"/>
	<flow begin="0" end="3600" from="left4A4" id="left4A4-E0bottom4" number="16" to="E0bottom4"/>
	<flow begin="0" end="3600" from="left4A4" id="left4A4-E0right0" number="9" to="E0right0"/>
	<flow begin="0" end="3600" from="left4A4" id="left4A4-E1right1" number="3" to="E1right1"/>
	<flow begin="0" end="3600" from="left4A4" id="left4A4-E2right2" number="1" to="E2right2"/>
	<flow begin="0" end="3600" from="left4A4" id="left4A4-E3right3" number="10" to="E3right3"/>
	<flow begin="0" end="3600" from="left4A4" id="left4A4-E4right4" number="4" to="E4right4"/>
	<flow begin="0" end="3600" from="right0E0" id="right0E0-A4top0" number="11" to="A4top0"/>
	<flow begin="0" end="3600" from="right0E0" id="right0E0-B4top1" number="15" to="B4top1"/>
	<flow begin="0" end="3600" from="right0E0" id="right0E0-C4top2" number="19" to="C4top2"/>
	<flow begin="0" end="3600" from="right0E0" id="right0E0-D4top3" number="6" to="D4top3"/>
	<flow begin="0" end="3600" from="right0E0" id="right0E0-E4top4" number="6" to="E4top4"/>
	<flow begin="0" end="3600" from="right0E0" id="right0E0-A0bottom0" number="10" to="A0bottom0"/>
	<flow begin="0" end="3600" from="right0E0" id="right0E0-B0bottom1" number="11" to="B0bottom1"/>
	<flow begin="0" end="3600" from="right0E0" id="right0E0-C0bottom2" number="3" to="C0bottom2"/>
	<flow begin="0" end="3600" from="right0E0" id="right0E0-D0bottom3" number="13" to="D0bottom3"/>
	<flow begin="0" end="3600" from="right0E0" id="right0E0-E0bottom4" number="3" to="E0bottom4"/>
	<flow begin="0" end="3600" from="right0E0" id="right0E0-A0left0" number="10" to="A0left0"/>
	<flow begin="0" end="3600" from="right0E0" id="right0E0-A1left1" number="12" to="A1left1"/>
	<flow begin="0" end="3600" from="right0E0" id="right0E0-A2left2" number="0" to="A2left2"/>
	<flow begin="0" end="3600" from="right0E0" id="right0E0-A3left3" number="3" to="A3left3"/>
	<flow begin="0" end="3600" from="right0E0" id="right0E0-A4left4" number="11" to="A4left4"/>
	<flow begin="0" end="3600" from="right1E1" id="right1E1-A4top0" number="5" to="A4top0"/>
	<flow begin="0" end="3600" from="right1E1" id="right1E1-B4top1" number="7" to="B4top1"/>
	<flow begin="0" end="3600" from="right1E1" id="right1E1-C4top2" number="8" to="C4top2"/>
	<flow begin="0" end="3600" from="right1E1" id="right1E1-D4top3" number="13" to="D4top3"/>
	<flow begin="0" end="3600" from="right1E1" id="right1E1-E4top4" number="18" to="E4top4"/>
	<flow begin="0" end="3600" from="right1E1" id="right1E1-A0bottom0" number="12" to="A0bottom0"/>
	<flow begin="0" end="3600" from="right1E1" id="right1E1-B0bottom1" number="16" to="B0bottom1"/>
	<flow begin="0" end="3600" from="right1E1" id="right1E1-C0bottom2" number="12" to="C0bottom2"/>
	<flow begin="0" end="3600" from="right1E1" id="right1E1-D0bottom3" number="14" to="D0bottom3"/>
	<flow begin="0" end="3600" from="right1E1" id="right1E1-E0bottom4" number="5" to="E0bottom4"/>
	<flow begin="0" end="3600" from="right1E1" id="right1E1-A0left0" number="5" to="A0left0"/>
	<flow begin="0" end="3600" from="right1E1" id="right1E1-A1left1" number="19" to="A1left1"/>
	<flow begin="0" end="3600" from="right1E1" id="right1E1-A2left2" number="15" to="A2left2"/>
	<flow begin="0" end="3600" from="right1E1" id="right1E1-A3left3" number="15" to="A3left3"/>
	<flow begin="0" end="3600" from="right1E1" id="right1E1-A4left4" number="9" to="A4left4"/>
	<flow begin="0" end="3600" from="right2E2" id="right2E2-A4top0" number="14" to="A4top0"/>
	<flow begin="0" end="3600" from="right2E2" id="right2E2-B4top1" number="10" to="B4top1"/>
	<flow begin="0" end="3600" from="right2E2" id="right2E2-C4top2" number="2" to="C4top2"/>
	<flow begin="0" end="3600" from="right2E2" id="right2E2-D4top3" number="7" to="D4top3"/>
	<flow begin="0" end="3600" from="right2E2" id="right2E2-E4top4" number="16" to="E4top4"/>
	<flow begin="0" end="3600" from="right2E2" id="right2E2-A0bottom0" number="18" to="A0bottom0"/>
	<flow begin="0" end="3600" from="right2E2" id="right2E2-B0bottom1" number="12" to="B0bottom1"/>
	<flow begin="0" end="3600" from="right2E2" id="right2E2-C0bottom2" number="6" to="C0bottom2"/>
	<flow begin="0" end="3600" from="right2E2" id="right2E2-D0bottom3" number="0" to="D0bottom3"/>
	<flow begin="0" end="3600" from="right2E2" id="right2E2-E0bottom4" number="7" to="E0bottom4"/>
	<flow begin="0" end="3600" from="right2E2" id="right2E2-A0left0" number="12" to="A0left0"/>
	<flow begin="0" end="3600" from="right2E2" id="right2E2-A1left1" number="3" to="A1left1"/>
	<flow begin="0" end="3600" from="right2E2" id="right2E2-A2left2" number="16" to="A2left2"/>
	<flow begin="0" end="3600" from="right2E2" id="right2E2-A3left3" number="4" to="A3left3"/>
	<flow begin="0" end="3600" from="right2E2" id="right2E2-A4left4" number="17" to="A4left4"/>
	<flow begin="0" end="3600" from="right3E3" id="right3E3-A4top0" number="16" to="A4top0"/>
	<flow begin="0" end="3600" from="right3E3" id="right3E3-B4top1" number="9" to="B4top1"/>
	<flow begin="0" end="3600" from="right3E3" id="right3E3-C4top2" number="3" to="C4top2"/>
	<flow begin="0" end="3600" from="right3E3" id="right3E3-D4top3" number="18" to="D4top3"/>
	<flow begin="0" end="3600" from="right3E3" id="right3E3-E4top4" number="1" to="E4top4"/>
	<flow begin="0" end="3600" from="right3E3" id="right3E3-A0bottom0" number="0" to="A0bottom0"/>
	<flow begin="0" end="3600" from="right3E3" id="right3E3-B0bottom1" number="12" to="B0bottom1"/>
	<flow begin="0" end="3600" from="right3E3" id="right3E3-C0bottom2" number="8" to="C0bottom2"/>
	<flow begin="0" end="3600" from="right3E3" id="right3E3-D0bottom3" number="13" to="D0bottom3"/>
	<flow begin="0" end="3600" from="right3E3" id="right3E3-E0bottom4" number="12" to="E0bottom4"/>
	<flow begin="0" end="3600" from="right3E3" id="right3E3-A0left0" number="11" to="A0left0"/>
	<flow begin="0" end="3600" from="right3E3" id="right3E3-A1left1" number="12" to="A1left1"/>
	<flow begin="0" end="3600" from="right3E3" id="right3E3-A2left2" number="6" to="A2left2"/>
	<flow begin="0" end="3600" from="right3E3" id="right3E3-A3left3" number="17" to="A3left3"/>
	<flow begin="0" end="3600" from="right3E3" id="right3E3-A4left4" number="1" to="A4left4"/>
	<flow begin="0" end="3600" from="right4E4" id="right4E4-A4top0" number="10" to="A4top0"/>
	<flow begin="0" end="3600" from="right4E4" id="right4E4-B4top1" number="1" to="B4top1"/>
	<flow begin="0" end="3600" from="right4E4" id="right4E4-C4top2" number="12" to="C4top2"/>
	<flow begin="0" end="3600" from="right4E4" id="right4E4-D4top3" number="1" to="D4top3"/>
	<flow begin="0" end="3600" from="right4E4" id="right4E4-E4top4" number="6" to="E4top4"/>
	<flow begin="0" end="3600" from="right4E4" id="right4E4-A0bottom0" number="6" to="A0bottom0"/>
	<flow begin="0" end="3600" from="right4E4" id="right4E4-B0bottom1" number="18" to="B0bottom1"/>
	<flow begin="0" end="3600" from="right4E4" id="right4E4-C0bottom2" number="13" to="C0bottom2"/>
	<flow begin="0" end="3600" from="right4E4" id="right4E4-D0bottom3" number="15" to="D0bottom3"/>
	<flow begin="0" end="3600" from="right4E4" id="right4E4-E0bottom4" number="9" to="E0bottom4"/>
	<flow begin="0" end="3600" from="right4E4" id="right4E4-A0left0" number="1" to="A0left0"/>
	<flow begin="0" end="3600" from="right4E4" id="right4E4-A1left1" number="5" to="A1left1"/>
	<flow begin="0" end="3600" from="right4E4" id="right4E4-A2left2" number="4" to="A2left2"/>
	<flow begin="0" end="3600" from="right4E4" id="right4E4-A3left3" number="13" to="A3left3"/>
	<flow begin="0" end="3600" from="right4E4" id="right4E4-A4left4" number="7" to="A4left4"/>
</routes>
