<?xml version="1.0" encoding="UTF-8"?>

<!-- generated on 02/05/20 11:37:16 by Eclipse SUMO GUI Version 1.4.0
-->

<configuration xmlns:xsi="http://www.w3.org/2001/XMLSchema-instance" xsi:noNamespaceSchemaLocation="http://sumo.dlr.de/xsd/sumoConfiguration.xsd">

    <input>
        <net-file value="meta.net.xml"/>
        <route-files value="meta_stops.rou.xml"/>
        <additional-files value="meta_parking-areas.xml"/>
    </input>

</configuration>
